6SY3
 OpenBabel11252210453D

 62 65  0  0  1  0  0  0  0  0999 V2000
   -1.1200   20.6040   15.7610 N   0  3  0  0  0  0  0  0  0  0  0  0
   -0.1550   20.9660   16.8990 C   0  0  1  0  0  0  0  0  0  0  0  0
   -1.4000   17.7630   20.6680 O   0  0  0  0  0  0  0  0  0  0  0  0
    0.1540   19.6990   17.7390 C   0  0  0  0  0  0  0  0  0  0  0  0
    0.0960   19.7930   19.1060 N   0  0  0  0  0  0  0  0  0  0  0  0
    0.4680   18.6440   17.1780 O   0  0  0  0  0  0  0  0  0  0  0  0
    0.7320   18.7550   19.9830 C   0  0  2  0  0  0  0  0  0  0  0  0
    0.1170   16.3870   19.6410 N   0  0  0  0  0  0  0  0  0  0  0  0
   -0.3040   17.6190   20.1590 C   0  0  0  0  0  0  0  0  0  0  0  0
   -2.7890   15.6310   15.5640 N   0  3  0  0  0  0  0  0  0  0  0  0
   -0.8090   15.2760   19.3750 C   0  0  0  0  0  0  0  0  0  0  0  0
   -1.4680   15.4100   18.0180 C   0  0  0  0  0  0  0  0  0  0  0  0
   -2.0680   16.6270   17.6200 C   0  0  0  0  0  0  0  0  0  0  0  0
   -2.7130   16.7300   16.3990 C   0  0  0  0  0  0  0  0  0  0  0  0
   -2.2110   14.4370   15.9170 C   0  0  0  0  0  0  0  0  0  0  0  0
   -1.5390   14.3200   17.1360 C   0  0  0  0  0  0  0  0  0  0  0  0
    1.0340   19.4830   21.3080 C   0  0  0  0  0  0  0  0  0  0  0  0
    0.1110   20.7170   21.3500 C   0  0  0  0  0  0  0  0  0  0  0  0
   -0.2970   21.0120   19.8940 C   0  0  0  0  0  0  0  0  0  0  0  0
    1.2140   21.4940   16.3510 C   0  0  0  0  0  0  0  0  0  0  0  0
    2.0310   21.9620   17.5460 C   0  0  0  0  0  0  0  0  0  0  0  0
    1.8980   23.2560   18.0690 C   0  0  0  0  0  0  0  0  0  0  0  0
    2.6490   23.6450   19.1820 C   0  0  0  0  0  0  0  0  0  0  0  0
    3.5210   22.7400   19.7950 C   0  0  0  0  0  0  0  0  0  0  0  0
    3.6430   21.4430   19.2860 C   0  0  0  0  0  0  0  0  0  0  0  0
    2.9140   21.0580   18.1580 C   0  0  0  0  0  0  0  0  0  0  0  0
    1.1260   22.5680   15.2840 C   0  0  0  0  0  0  0  0  0  0  0  0
    2.1130   22.5710   14.2830 C   0  0  0  0  0  0  0  0  0  0  0  0
    2.1420   23.5850   13.3200 C   0  0  0  0  0  0  0  0  0  0  0  0
    1.1810   24.6000   13.3400 C   0  0  0  0  0  0  0  0  0  0  0  0
    0.1870   24.5930   14.3250 C   0  0  0  0  0  0  0  0  0  0  0  0
    0.1600   23.5850   15.2940 C   0  0  0  0  0  0  0  0  0  0  0  0
   -1.2630   21.4630   15.1410 H   0  0  0  0  0  0  0  0  0  0  0  0
   -2.0640   20.3210   16.1580 H   0  0  0  0  0  0  0  0  0  0  0  0
   -0.7390   19.8040   15.1650 H   0  0  0  0  0  0  0  0  0  0  0  0
   -0.6760   21.7700   17.4960 H   0  0  0  0  0  0  0  0  0  0  0  0
    1.6730   18.3840   19.4920 H   0  0  0  0  0  0  0  0  0  0  0  0
    1.0930   16.2290   19.3400 H   0  0  0  0  0  0  0  0  0  0  0  0
   -0.2380   14.3050   19.4380 H   0  0  0  0  0  0  0  0  0  0  0  0
   -1.6400   15.2510   20.1480 H   0  0  0  0  0  0  0  0  0  0  0  0
    2.1060   19.8070   21.3090 H   0  0  0  0  0  0  0  0  0  0  0  0
    0.8520   18.8210   22.1830 H   0  0  0  0  0  0  0  0  0  0  0  0
   -0.8000   20.5190   21.9630 H   0  0  0  0  0  0  0  0  0  0  0  0
    0.6470   21.5980   21.7840 H   0  0  0  0  0  0  0  0  0  0  0  0
   -1.4030   21.1620   19.7880 H   0  0  0  0  0  0  0  0  0  0  0  0
    0.2480   21.9140   19.5100 H   0  0  0  0  0  0  0  0  0  0  0  0
    1.7210   20.5980   15.8870 H   0  0  0  0  0  0  0  0  0  0  0  0
    1.1900   23.9600   17.6200 H   0  0  0  0  0  0  0  0  0  0  0  0
    2.5310   24.6600   19.5810 H   0  0  0  0  0  0  0  0  0  0  0  0
    4.0970   23.0400   20.6770 H   0  0  0  0  0  0  0  0  0  0  0  0
    4.3050   20.7190   19.7700 H   0  0  0  0  0  0  0  0  0  0  0  0
    3.0210   20.0480   17.7610 H   0  0  0  0  0  0  0  0  0  0  0  0
    2.8650   21.7750   14.2560 H   0  0  0  0  0  0  0  0  0  0  0  0
    2.9210   23.5720   12.5470 H   0  0  0  0  0  0  0  0  0  0  0  0
    1.1960   25.3960   12.5850 H   0  0  0  0  0  0  0  0  0  0  0  0
   -0.5830   25.3730   14.3490 H   0  0  0  0  0  0  0  0  0  0  0  0
   -0.6100   23.6180   16.0690 H   0  0  0  0  0  0  0  0  0  0  0  0
   -2.3120   13.5840   15.2190 H   0  0  0  0  0  0  0  0  0  0  0  0
   -1.0700   13.3510   17.3810 H   0  0  0  0  0  0  0  0  0  0  0  0
   -2.0360   17.5200   18.2570 H   0  0  0  0  0  0  0  0  0  0  0  0
   -3.1920   17.6640   16.0590 H   0  0  0  0  0  0  0  0  0  0  0  0
   -3.3120   15.7530   14.6660 H   0  0  0  0  0  0  0  0  0  0  0  0
  1  2  1  0  0  0  0
  1 33  1  0  0  0  0
  1 34  1  0  0  0  0
  1 35  1  0  0  0  0
  2  4  1  0  0  0  0
  2 20  1  0  0  0  0
  2 36  1  1  0  0  0
  3  9  2  0  0  0  0
  4  5  1  0  0  0  0
  4  6  2  0  0  0  0
  5  7  1  0  0  0  0
  5 19  1  0  0  0  0
  7  9  1  0  0  0  0
  7 17  1  0  0  0  0
  7 37  1  6  0  0  0
  8  9  1  0  0  0  0
  8 11  1  0  0  0  0
  8 38  1  0  0  0  0
 10 14  2  0  0  0  0
 10 15  1  0  0  0  0
 10 62  1  0  0  0  0
 11 12  1  0  0  0  0
 11 39  1  0  0  0  0
 11 40  1  0  0  0  0
 12 13  2  0  0  0  0
 12 16  1  0  0  0  0
 13 14  1  0  0  0  0
 13 60  1  0  0  0  0
 14 61  1  0  0  0  0
 15 16  2  0  0  0  0
 15 58  1  0  0  0  0
 16 59  1  0  0  0  0
 17 18  1  0  0  0  0
 17 41  1  0  0  0  0
 17 42  1  0  0  0  0
 18 19  1  0  0  0  0
 18 43  1  0  0  0  0
 18 44  1  0  0  0  0
 19 45  1  0  0  0  0
 19 46  1  0  0  0  0
 20 21  1  0  0  0  0
 20 27  1  0  0  0  0
 20 47  1  0  0  0  0
 21 22  2  0  0  0  0
 21 26  1  0  0  0  0
 22 23  1  0  0  0  0
 22 48  1  0  0  0  0
 23 24  2  0  0  0  0
 23 49  1  0  0  0  0
 24 25  1  0  0  0  0
 24 50  1  0  0  0  0
 25 26  2  0  0  0  0
 25 51  1  0  0  0  0
 26 52  1  0  0  0  0
 27 28  2  0  0  0  0
 27 32  1  0  0  0  0
 28 29  1  0  0  0  0
 28 53  1  0  0  0  0
 29 30  2  0  0  0  0
 29 54  1  0  0  0  0
 30 31  1  0  0  0  0
 30 55  1  0  0  0  0
 31 32  2  0  0  0  0
 31 56  1  0  0  0  0
 32 57  1  0  0  0  0
M  CHG  2   1   1  10   1
M  END
>  <number_of_rotatable_bonds>
9

>  <lm5_entropy_jk>
25.430252392296193

>  <protonation_change>
deprotonated_in_solution

>  <protonation_site>
62

>  <protonation_pKa>
5.0

>  <protonation_pKa_method>
experiment

>  <experiment_pH>
7.8

>  <protonated_energy_kcalmol>
155.549498

>  <deprotonated_energy_kcalmol>
62.445419

>  <deltaG_kcalmol>
-4.26

>  <charge>
2

$$$$
