3ehy.pdb
 OpenBabel11252210453D

 30 30  0  0  1  0  0  0  0  0999 V2000
    7.7430   24.0760    0.7000 C   0  0  0  0  0  0  0  0  0  0  0  0
    8.0080   25.9950    2.1150 N   0  0  0  0  0  0  0  0  0  0  0  0
    6.7810   24.4510    0.0570 O   0  0  0  0  0  0  0  0  0  0  0  0
    7.9760   26.2620    3.8280 S   0  0  0  0  0  0  0  0  0  0  0  0
    8.7700   24.8970    1.4930 C   0  0  2  0  0  0  0  0  0  0  0  0
    7.8760   22.7110    0.6200 O   0  0  0  0  0  0  0  0  0  0  0  0
    6.6060   25.3580    4.3240 C   0  0  0  0  0  0  0  0  0  0  0  0
    9.2190   25.7860    4.4300 O   0  0  0  0  0  0  0  0  0  0  0  0
    5.3170   25.8940    4.1190 C   0  0  0  0  0  0  0  0  0  0  0  0
    7.7160   27.6970    3.9580 O   0  0  0  0  0  0  0  0  0  0  0  0
    4.1880   25.2170    4.5500 C   0  0  0  0  0  0  0  0  0  0  0  0
    3.1530   23.4740    5.6470 O   0  0  0  0  0  0  0  0  0  0  0  0
    4.3450   23.9820    5.2250 C   0  0  0  0  0  0  0  0  0  0  0  0
    3.1090   22.2240    6.3880 C   0  0  0  0  0  0  0  0  0  0  0  0
    5.6160   23.4140    5.4060 C   0  0  0  0  0  0  0  0  0  0  0  0
    6.7350   24.1030    4.9350 C   0  0  0  0  0  0  0  0  0  0  0  0
    9.8080   25.3870    0.4760 C   0  0  0  0  0  0  0  0  0  0  0  0
    8.0220   26.8540    1.5300 H   0  0  0  0  0  0  0  0  0  0  0  0
    9.2660   24.2440    2.2680 H   0  0  0  0  0  0  0  0  0  0  0  0
    5.1920   26.8580    3.6100 H   0  0  0  0  0  0  0  0  0  0  0  0
    3.1830   25.6090    4.3790 H   0  0  0  0  0  0  0  0  0  0  0  0
    3.6550   21.4250    5.8530 H   0  0  0  0  0  0  0  0  0  0  0  0
    2.0070   22.0290    6.3960 H   0  0  0  0  0  0  0  0  0  0  0  0
    3.4980   22.3920    7.4130 H   0  0  0  0  0  0  0  0  0  0  0  0
    5.7480   22.4570    5.9020 H   0  0  0  0  0  0  0  0  0  0  0  0
    7.7240   23.6410    5.0540 H   0  0  0  0  0  0  0  0  0  0  0  0
    9.3640   26.0150   -0.3300 H   0  0  0  0  0  0  0  0  0  0  0  0
   10.3330   24.5180    0.0110 H   0  0  0  0  0  0  0  0  0  0  0  0
   10.5860   25.9930    0.9940 H   0  0  0  0  0  0  0  0  0  0  0  0
    8.5420   22.2470    1.3060 H   0  0  0  0  0  0  0  0  0  0  0  0
  1  3  2  0  0  0  0
  1  5  1  0  0  0  0
  1  6  1  0  0  0  0
  2  4  1  0  0  0  0
  2  5  1  0  0  0  0
  2 18  1  0  0  0  0
  4  7  1  0  0  0  0
  4  8  2  0  0  0  0
  4 10  2  0  0  0  0
  5 17  1  0  0  0  0
  5 19  1  1  0  0  0
  6 30  1  0  0  0  0
  7  9  2  0  0  0  0
  7 16  1  0  0  0  0
  9 11  1  0  0  0  0
  9 20  1  0  0  0  0
 11 13  2  0  0  0  0
 11 21  1  0  0  0  0
 12 13  1  0  0  0  0
 12 14  1  0  0  0  0
 13 15  1  0  0  0  0
 14 22  1  0  0  0  0
 14 23  1  0  0  0  0
 14 24  1  0  0  0  0
 15 16  2  0  0  0  0
 15 25  1  0  0  0  0
 16 26  1  0  0  0  0
 17 27  1  0  0  0  0
 17 28  1  0  0  0  0
 17 29  1  0  0  0  0
M  END
>  <lm5_entropy_jk>
36.00760943656307

>  <number_of_rotatable_bonds>
5

>  <deltaG_kcalmol>
-7.99

>  <charge>
0

>  <protonation_change>
deprotonated_in_solution

>  <protonation_site>
30

>  <protonation_pKa>
2.34

>  <experiment_pH>
7.2

>  <protonation_pKa_method>
pKa of alanine

>  <protonated_energy_kcalmol>
-210.921508

>  <deprotonated_energy_kcalmol>
-305.667470

$$$$
