3pvg-COOH
 OpenBabel11252210453D

 21 22  0  0  1  0  0  0  0  0999 V2000
   21.8120    7.2870   20.9580 C   0  0  0  0  0  0  0  0  0  0  0  0
   22.6880    6.6020   20.1020 C   0  0  0  0  0  0  0  0  0  0  0  0
   23.0340    7.1320   18.8060 C   0  0  0  0  0  0  0  0  0  0  0  0
   22.3810    8.2900   18.3430 C   0  0  0  0  0  0  0  0  0  0  0  0
   21.4420    8.8990   19.1670 C   0  0  0  0  0  0  0  0  0  0  0  0
   21.1910    8.4330   20.4880 C   0  0  0  0  0  0  0  0  0  0  0  0
   23.3590    5.3980   20.3440 N   0  0  0  0  0  0  0  0  0  0  0  0
   24.1260    5.1840   19.2650 C   0  0  0  0  0  0  0  0  0  0  0  0
   23.9700    6.2200   18.2840 N   0  0  0  0  0  0  0  0  0  0  0  0
   24.8970    6.4600   17.1730 C   0  0  0  0  0  0  0  0  0  0  0  0
   25.1350    5.2680   16.2620 C   0  0  0  0  0  0  0  0  0  0  0  0
   25.4780    5.3340   15.1040 O   0  0  0  0  0  0  0  0  0  0  0  0
   24.9850    4.0740   16.9010 O   0  0  0  0  0  0  0  0  0  0  0  0
   21.6200    6.5450   22.6780 Br  0  0  0  0  0  0  0  0  0  0  0  0
   20.0160    9.3790   21.6310 Br  0  0  0  0  0  0  0  0  0  0  0  0
   20.4730   10.3930   18.4970 Br  0  0  0  0  0  0  0  0  0  0  0  0
   22.7930    9.0010   16.6350 Br  0  0  0  0  0  0  0  0  0  0  0  0
   24.7780    4.3240   19.0850 H   0  0  0  0  0  0  0  0  0  0  0  0
   25.1640    3.2490   16.2630 H   0  0  0  0  0  0  0  0  0  0  0  0
   25.9030    6.7820   17.5830 H   0  0  0  0  0  0  0  0  0  0  0  0
   24.5110    7.3130   16.5160 H   0  0  0  0  0  0  0  0  0  0  0  0
  1  2  2  0  0  0  0
  1  6  1  0  0  0  0
  1 14  1  0  0  0  0
  2  3  1  0  0  0  0
  2  7  1  0  0  0  0
  3  4  2  0  0  0  0
  3  9  1  0  0  0  0
  4  5  1  0  0  0  0
  4 17  1  0  0  0  0
  5  6  2  0  0  0  0
  5 16  1  0  0  0  0
  6 15  1  0  0  0  0
  7  8  2  0  0  0  0
  8  9  1  0  0  0  0
  8 18  1  0  0  0  0
  9 10  1  0  0  0  0
 10 11  1  0  0  0  0
 10 20  1  0  0  0  0
 10 21  1  0  0  0  0
 11 12  2  0  0  0  0
 11 13  1  0  0  0  0
 13 19  1  0  0  0  0
M  END
>  <Ki_NM>
1340

>  <charge>
0

>  <number_of_rotatable_bonds>
2

>  <lm5_entropy_jk>
18.17250520339831

>  <penalty_kcalmol>
15.96

>  <protonation_change>
deprotonated_in_solution

>  <protonation_site>
19

>  <protonation_pKa>
3.325

>  <protonation_pKa_method>
stardrop

>  <experiment_pH>
7.4

>  <protonated_energy_kcalmol>
-31.325

>  <deprotonated_energy_kcalmol>
-128.689

$$$$
