3EHY
 OpenBabel11252210453D

 30 30  0  0  1  0  0  0  0  0999 V2000
    7.7680   24.4130    0.6240 C   0  0  0  0  0  0  0  0  0  0  0  0
    8.3190   26.3160    2.0700 N   0  0  0  0  0  0  0  0  0  0  0  0
    6.6620   25.0330    0.2120 O   0  0  0  0  0  0  0  0  0  0  0  0
    8.1430   26.1000    3.6570 S   0  0  0  0  0  0  0  0  0  0  0  0
    8.8710   25.2270    1.2480 C   0  0  2  0  0  0  0  0  0  0  0  0
    7.8450   23.2080    0.4830 O   0  0  0  0  0  0  0  0  0  0  0  0
    6.9830   25.0320    4.0650 C   0  0  0  0  0  0  0  0  0  0  0  0
    9.3470   25.5820    4.2520 O   0  0  0  0  0  0  0  0  0  0  0  0
    5.6470   25.4150    3.9690 C   0  0  0  0  0  0  0  0  0  0  0  0
    7.7160   27.3610    4.1760 O   0  0  0  0  0  0  0  0  0  0  0  0
    4.6190   24.5310    4.3420 C   0  0  0  0  0  0  0  0  0  0  0  0
    3.8560   22.4540    5.2440 O   0  0  0  0  0  0  0  0  0  0  0  0
    4.9140   23.2780    4.8950 C   0  0  0  0  0  0  0  0  0  0  0  0
    3.7300   21.7700    6.4820 C   0  0  0  0  0  0  0  0  0  0  0  0
    6.2280   22.8620    5.0040 C   0  0  0  0  0  0  0  0  0  0  0  0
    7.2610   23.7420    4.5820 C   0  0  0  0  0  0  0  0  0  0  0  0
    9.7670   25.8060    0.1510 C   0  0  0  0  0  0  0  0  0  0  0  0
    7.3950   26.5320    1.6950 H   0  0  0  0  0  0  0  0  0  0  0  0
    9.4490   24.5870    1.8820 H   0  0  0  0  0  0  0  0  0  0  0  0
    5.4090   26.3570    3.6210 H   0  0  0  0  0  0  0  0  0  0  0  0
    3.6340   24.8090    4.2070 H   0  0  0  0  0  0  0  0  0  0  0  0
    2.8210   21.2060    6.4870 H   0  0  0  0  0  0  0  0  0  0  0  0
    3.7140   22.4800    7.2820 H   0  0  0  0  0  0  0  0  0  0  0  0
    4.5610   21.1080    6.6100 H   0  0  0  0  0  0  0  0  0  0  0  0
    6.4540   21.9300    5.3850 H   0  0  0  0  0  0  0  0  0  0  0  0
    8.2430   23.4320    4.6540 H   0  0  0  0  0  0  0  0  0  0  0  0
    9.1880   26.4450   -0.4820 H   0  0  0  0  0  0  0  0  0  0  0  0
   10.1800   25.0080   -0.4300 H   0  0  0  0  0  0  0  0  0  0  0  0
   10.5590   26.3690    0.5980 H   0  0  0  0  0  0  0  0  0  0  0  0
    7.7870   22.9900   -0.4500 H   0  0  0  0  0  0  0  0  0  0  0  0
  1  3  2  0  0  0  0
  1  5  1  0  0  0  0
  1  6  1  0  0  0  0
  2  4  1  0  0  0  0
  2  5  1  0  0  0  0
  2 18  1  0  0  0  0
  4  7  1  0  0  0  0
  4  8  2  0  0  0  0
  4 10  2  0  0  0  0
  5 17  1  0  0  0  0
  5 19  1  1  0  0  0
  6 30  1  0  0  0  0
  7  9  2  0  0  0  0
  7 16  1  0  0  0  0
  9 11  1  0  0  0  0
  9 20  1  0  0  0  0
 11 13  2  0  0  0  0
 11 21  1  0  0  0  0
 12 13  1  0  0  0  0
 12 14  1  0  0  0  0
 13 15  1  0  0  0  0
 14 22  1  0  0  0  0
 14 23  1  0  0  0  0
 14 24  1  0  0  0  0
 15 16  2  0  0  0  0
 15 25  1  0  0  0  0
 16 26  1  0  0  0  0
 17 27  1  0  0  0  0
 17 28  1  0  0  0  0
 17 29  1  0  0  0  0
M  END
>  <lm5_entropy_jk>
36.00760943656307

>  <number_of_rotatable_bonds>
5

>  <deltaG_kcalmol>
-7.99

>  <charge>
0

>  <protonation_change>
deprotonated_in_solution

>  <protonation_site>
30

>  <protonation_pKa>
2.34

>  <experiment_pH>
7.2

>  <protonation_pKa_method>
pKa of alanine

>  <protonated_energy_kcalmol>
-210.921508

>  <deprotonated_energy_kcalmol>
-305.667470

$$$$
