6T5W
 OpenBabel11252210453D

 54 56  0  0  1  0  0  0  0  0999 V2000
   -0.2190   20.8700   15.5080 N   0  3  0  0  0  0  0  0  0  0  0  0
    1.1580   20.9950   16.1810 C   0  0  2  0  0  0  0  0  0  0  0  0
    0.0420   18.9730   20.1660 O   0  0  0  0  0  0  0  0  0  0  0  0
    2.2740   20.9600   15.1170 C   0  0  0  0  0  0  0  0  0  0  0  0
    2.0380   20.0550   18.3280 N   0  0  0  0  0  0  0  0  0  0  0  0
    0.9510   18.6860   16.8770 O   0  0  0  0  0  0  0  0  0  0  0  0
    2.3440   22.2150   14.2830 C   0  0  0  0  0  0  0  0  0  0  0  0
    0.9710   16.9370   19.6740 N   0  0  0  0  0  0  0  0  0  0  0  0
    3.0320   23.3410   14.7590 C   0  0  0  0  0  0  0  0  0  0  0  0
   -2.7550   14.5970   14.8530 N   0  0  0  0  0  0  0  0  0  0  0  0
    3.1730   24.4730   13.9490 C   0  0  0  0  0  0  0  0  0  0  0  0
   -1.5630   14.0480   16.8470 N   0  3  0  0  0  0  0  0  0  0  0  0
    2.6250   24.4890   12.6620 C   0  0  0  0  0  0  0  0  0  0  0  0
    1.9210   23.3750   12.1920 C   0  0  0  0  0  0  0  0  0  0  0  0
    1.7790   22.2420   12.9980 C   0  0  0  0  0  0  0  0  0  0  0  0
    1.3510   19.8190   17.1690 C   0  0  0  0  0  0  0  0  0  0  0  0
    2.3310   18.9610   19.3060 C   0  0  2  0  0  0  0  0  0  0  0  0
    0.9890   18.3300   19.7500 C   0  0  0  0  0  0  0  0  0  0  0  0
   -0.2630   16.1380   19.7520 C   0  0  0  0  0  0  0  0  0  0  0  0
   -0.7930   15.7540   18.3820 C   0  0  0  0  0  0  0  0  0  0  0  0
   -1.2430   16.7530   17.4660 C   0  0  0  0  0  0  0  0  0  0  0  0
   -1.8790   16.3830   16.3040 C   0  0  0  0  0  0  0  0  0  0  0  0
   -2.0960   15.0090   15.9920 C   0  0  0  0  0  0  0  0  0  0  0  0
   -0.9360   14.4270   18.0360 C   0  0  0  0  0  0  0  0  0  0  0  0
    3.0800   19.6230   20.4800 C   0  0  0  0  0  0  0  0  0  0  0  0
    3.0990   21.1420   20.2200 C   0  0  0  0  0  0  0  0  0  0  0  0
    2.5030   21.3920   18.8220 C   0  0  0  0  0  0  0  0  0  0  0  0
   -0.3240   21.6640   14.8040 H   0  0  0  0  0  0  0  0  0  0  0  0
   -0.9950   20.9520   16.2260 H   0  0  0  0  0  0  0  0  0  0  0  0
   -0.3110   19.9370   14.9970 H   0  0  0  0  0  0  0  0  0  0  0  0
    1.1590   21.9970   16.7060 H   0  0  0  0  0  0  0  0  0  0  0  0
    3.2570   20.8280   15.6520 H   0  0  0  0  0  0  0  0  0  0  0  0
    2.1370   20.0690   14.4560 H   0  0  0  0  0  0  0  0  0  0  0  0
    1.8110   16.4140   19.3770 H   0  0  0  0  0  0  0  0  0  0  0  0
    3.4540   23.3290   15.7680 H   0  0  0  0  0  0  0  0  0  0  0  0
   -3.2340   15.3540   14.3090 H   0  0  0  0  0  0  0  0  0  0  0  0
   -3.2440   13.6800   14.8750 H   0  0  0  0  0  0  0  0  0  0  0  0
    3.7140   25.3460   14.3360 H   0  0  0  0  0  0  0  0  0  0  0  0
    2.7400   25.3750   12.0240 H   0  0  0  0  0  0  0  0  0  0  0  0
    1.4720   23.3810   11.1920 H   0  0  0  0  0  0  0  0  0  0  0  0
    1.2340   21.3720   12.6250 H   0  0  0  0  0  0  0  0  0  0  0  0
    2.9840   18.2060   18.7920 H   0  0  0  0  0  0  0  0  0  0  0  0
   -0.0440   15.2080   20.3540 H   0  0  0  0  0  0  0  0  0  0  0  0
   -1.0750   16.7230   20.2770 H   0  0  0  0  0  0  0  0  0  0  0  0
    4.1260   19.2300   20.5250 H   0  0  0  0  0  0  0  0  0  0  0  0
    2.5770   19.4070   21.4510 H   0  0  0  0  0  0  0  0  0  0  0  0
    2.4960   21.6850   20.9910 H   0  0  0  0  0  0  0  0  0  0  0  0
    4.1440   21.5400   20.2630 H   0  0  0  0  0  0  0  0  0  0  0  0
    1.6380   22.1050   18.8750 H   0  0  0  0  0  0  0  0  0  0  0  0
    3.2770   21.7940   18.1150 H   0  0  0  0  0  0  0  0  0  0  0  0
   -2.2630   17.1450   15.6110 H   0  0  0  0  0  0  0  0  0  0  0  0
   -1.1010   17.8180   17.6930 H   0  0  0  0  0  0  0  0  0  0  0  0
   -0.5970   13.5980   18.6770 H   0  0  0  0  0  0  0  0  0  0  0  0
   -1.6360   13.0280   16.6180 H   0  0  0  0  0  0  0  0  0  0  0  0
  1  2  1  0  0  0  0
  1 28  1  0  0  0  0
  1 29  1  0  0  0  0
  1 30  1  0  0  0  0
  2  4  1  0  0  0  0
  2 16  1  0  0  0  0
  2 31  1  1  0  0  0
  3 18  2  0  0  0  0
  4  7  1  0  0  0  0
  4 32  1  0  0  0  0
  4 33  1  0  0  0  0
  5 16  1  0  0  0  0
  5 17  1  0  0  0  0
  5 27  1  0  0  0  0
  6 16  2  0  0  0  0
  7  9  2  0  0  0  0
  7 15  1  0  0  0  0
  8 18  1  0  0  0  0
  8 19  1  0  0  0  0
  8 34  1  0  0  0  0
  9 11  1  0  0  0  0
  9 35  1  0  0  0  0
 10 23  1  0  0  0  0
 10 36  1  0  0  0  0
 10 37  1  0  0  0  0
 11 13  2  0  0  0  0
 11 38  1  0  0  0  0
 12 23  2  0  0  0  0
 12 24  1  0  0  0  0
 12 54  1  0  0  0  0
 13 14  1  0  0  0  0
 13 39  1  0  0  0  0
 14 15  2  0  0  0  0
 14 40  1  0  0  0  0
 15 41  1  0  0  0  0
 17 18  1  0  0  0  0
 17 25  1  0  0  0  0
 17 42  1  6  0  0  0
 19 20  1  0  0  0  0
 19 43  1  0  0  0  0
 19 44  1  0  0  0  0
 20 21  1  0  0  0  0
 20 24  2  0  0  0  0
 21 22  2  0  0  0  0
 21 52  1  0  0  0  0
 22 23  1  0  0  0  0
 22 51  1  0  0  0  0
 24 53  1  0  0  0  0
 25 26  1  0  0  0  0
 25 45  1  0  0  0  0
 25 46  1  0  0  0  0
 26 27  1  0  0  0  0
 26 47  1  0  0  0  0
 26 48  1  0  0  0  0
 27 49  1  0  0  0  0
 27 50  1  0  0  0  0
M  CHG  2   1   1  12   1
M  END
>  <number_of_rotatable_bonds>
8

>  <lm5_entropy_jk>
24.380619327158232

>  <protonation_change>
deprotonated_in_solution

>  <protonation_site>
54

>  <protonation_pKa>
6.3

>  <protonation_pKa_method>
experiment

>  <experiment_pH>
7.8

>  <protonated_energy_kcalmol>
126.798999

>  <deprotonated_energy_kcalmol>
33.623896

>  <deltaG_kcalmol>
-5.96

>  <charge>
2

$$$$
