6T0M
 OpenBabel11252210453D

 56 58  0  0  1  0  0  0  0  0999 V2000
   -0.6980   23.6010   17.9420 N   0  3  0  0  0  0  0  0  0  0  0  0
    0.7900   23.2400   18.1640 C   0  0  1  0  0  0  0  0  0  0  0  0
   -0.3540   19.1870   19.7540 O   0  0  0  0  0  0  0  0  0  0  0  0
    0.9830   21.7080   18.1290 C   0  0  0  0  0  0  0  0  0  0  0  0
    1.6710   21.1270   19.1980 N   0  0  0  0  0  0  0  0  0  0  0  0
    0.5160   21.0410   17.2190 O   0  0  0  0  0  0  0  0  0  0  0  0
    1.9930   19.6750   19.2350 C   0  0  2  0  0  0  0  0  0  0  0  0
    0.9970   17.4080   19.2870 N   0  0  0  0  0  0  0  0  0  0  0  0
    0.7490   18.7640   19.4400 C   0  0  0  0  0  0  0  0  0  0  0  0
   -1.5640   13.4170   15.9000 N   0  0  0  0  0  0  0  0  0  0  0  0
   -0.0120   16.3130   19.5150 C   0  0  0  0  0  0  0  0  0  0  0  0
   -2.4780   15.5360   16.1120 N   0  3  0  0  0  0  0  0  0  0  0  0
   -0.8480   15.9650   18.3220 C   0  0  0  0  0  0  0  0  0  0  0  0
   -3.4180   17.6550   16.3420 N   0  0  0  0  0  0  0  0  0  0  0  0
   -0.7560   14.7820   17.6630 C   0  0  0  0  0  0  0  0  0  0  0  0
   -1.6100   14.5870   16.5680 C   0  0  0  0  0  0  0  0  0  0  0  0
   -2.5600   16.7290   16.7890 C   0  0  0  0  0  0  0  0  0  0  0  0
   -1.7840   16.9150   17.8820 C   0  0  0  0  0  0  0  0  0  0  0  0
    3.0630   19.5080   20.3530 C   0  0  0  0  0  0  0  0  0  0  0  0
    3.6440   20.9260   20.5430 C   0  0  0  0  0  0  0  0  0  0  0  0
    2.4590   21.8460   20.2250 C   0  0  0  0  0  0  0  0  0  0  0  0
    1.7250   23.9800   17.1410 C   0  0  0  0  0  0  0  0  0  0  0  0
    3.1930   23.6340   17.3220 C   0  0  0  0  0  0  0  0  0  0  0  0
    3.9970   24.3880   18.1910 C   0  0  0  0  0  0  0  0  0  0  0  0
    5.3520   24.0580   18.3690 C   0  0  0  0  0  0  0  0  0  0  0  0
    5.9080   22.9810   17.6600 C   0  0  0  0  0  0  0  0  0  0  0  0
    5.1110   22.2320   16.7790 C   0  0  0  0  0  0  0  0  0  0  0  0
    3.7540   22.5580   16.6160 C   0  0  0  0  0  0  0  0  0  0  0  0
   -0.8800   24.6130   18.0000 H   0  0  0  0  0  0  0  0  0  0  0  0
   -1.3230   23.1550   18.6290 H   0  0  0  0  0  0  0  0  0  0  0  0
   -1.0290   23.2940   17.0170 H   0  0  0  0  0  0  0  0  0  0  0  0
    1.0550   23.5240   19.1870 H   0  0  0  0  0  0  0  0  0  0  0  0
    2.4110   19.3980   18.2580 H   0  0  0  0  0  0  0  0  0  0  0  0
    1.9680   17.1380   19.1520 H   0  0  0  0  0  0  0  0  0  0  0  0
   -2.3610   13.1200   15.3520 H   0  0  0  0  0  0  0  0  0  0  0  0
   -0.9110   12.7050   16.2230 H   0  0  0  0  0  0  0  0  0  0  0  0
    0.4980   15.4020   19.8600 H   0  0  0  0  0  0  0  0  0  0  0  0
   -0.6840   16.5870   20.3420 H   0  0  0  0  0  0  0  0  0  0  0  0
   -3.7700   17.5510   15.3990 H   0  0  0  0  0  0  0  0  0  0  0  0
   -3.3600   18.5820   16.7430 H   0  0  0  0  0  0  0  0  0  0  0  0
    3.8230   18.7500   20.1150 H   0  0  0  0  0  0  0  0  0  0  0  0
    2.5610   19.1960   21.2820 H   0  0  0  0  0  0  0  0  0  0  0  0
    4.0560   21.1060   21.5490 H   0  0  0  0  0  0  0  0  0  0  0  0
    4.4410   21.1330   19.8120 H   0  0  0  0  0  0  0  0  0  0  0  0
    1.8390   22.0040   21.1230 H   0  0  0  0  0  0  0  0  0  0  0  0
    2.8220   22.8210   19.8720 H   0  0  0  0  0  0  0  0  0  0  0  0
    1.5990   25.0710   17.2130 H   0  0  0  0  0  0  0  0  0  0  0  0
    1.4280   23.7350   16.1100 H   0  0  0  0  0  0  0  0  0  0  0  0
    3.5680   25.2270   18.7390 H   0  0  0  0  0  0  0  0  0  0  0  0
    5.9730   24.6370   19.0550 H   0  0  0  0  0  0  0  0  0  0  0  0
    6.9600   22.7290   17.7930 H   0  0  0  0  0  0  0  0  0  0  0  0
    5.5420   21.3980   16.2230 H   0  0  0  0  0  0  0  0  0  0  0  0
    3.1340   21.9690   15.9420 H   0  0  0  0  0  0  0  0  0  0  0  0
   -3.0320   15.3920   15.2840 H   0  0  0  0  0  0  0  0  0  0  0  0
   -0.0750   14.0030   17.9830 H   0  0  0  0  0  0  0  0  0  0  0  0
   -1.8610   17.8500   18.4190 H   0  0  0  0  0  0  0  0  0  0  0  0
  1  2  1  0  0  0  0
  1 29  1  0  0  0  0
  1 30  1  0  0  0  0
  1 31  1  0  0  0  0
  2  4  1  0  0  0  0
  2 22  1  0  0  0  0
  2 32  1  1  0  0  0
  3  9  2  0  0  0  0
  4  5  1  0  0  0  0
  4  6  2  0  0  0  0
  5  7  1  0  0  0  0
  5 21  1  0  0  0  0
  7  9  1  0  0  0  0
  7 19  1  0  0  0  0
  7 33  1  6  0  0  0
  8  9  1  0  0  0  0
  8 11  1  0  0  0  0
  8 34  1  0  0  0  0
 10 16  1  0  0  0  0
 10 35  1  0  0  0  0
 10 36  1  0  0  0  0
 11 13  1  0  0  0  0
 11 37  1  0  0  0  0
 11 38  1  0  0  0  0
 12 16  2  0  0  0  0
 12 17  1  0  0  0  0
 12 54  1  0  0  0  0
 13 15  2  0  0  0  0
 13 18  1  0  0  0  0
 14 17  1  0  0  0  0
 14 39  1  0  0  0  0
 14 40  1  0  0  0  0
 15 16  1  0  0  0  0
 15 55  1  0  0  0  0
 17 18  2  0  0  0  0
 18 56  1  0  0  0  0
 19 20  1  0  0  0  0
 19 41  1  0  0  0  0
 19 42  1  0  0  0  0
 20 21  1  0  0  0  0
 20 43  1  0  0  0  0
 20 44  1  0  0  0  0
 21 45  1  0  0  0  0
 21 46  1  0  0  0  0
 22 23  1  0  0  0  0
 22 47  1  0  0  0  0
 22 48  1  0  0  0  0
 23 24  2  0  0  0  0
 23 28  1  0  0  0  0
 24 25  1  0  0  0  0
 24 49  1  0  0  0  0
 25 26  2  0  0  0  0
 25 50  1  0  0  0  0
 26 27  1  0  0  0  0
 26 51  1  0  0  0  0
 27 28  2  0  0  0  0
 27 52  1  0  0  0  0
 28 53  1  0  0  0  0
M  CHG  2   1   1  12   1
M  END
>  <number_of_rotatable_bonds>
8

>  <lm5_entropy_jk>
21.57145520137845

>  <protonation_change>
deprotonated_in_solution

>  <protonation_site>
54

>  <protonation_pKa>
6.4

>  <protonation_pKa_method>
experiment

>  <experiment_pH>
7.8

>  <protonated_energy_kcalmol>
116.491059

>  <deprotonated_energy_kcalmol>
22.556134

>  <deltaG_kcalmol>
-5.69

>  <charge>
2

$$$$
