1K1I
 OpenBabel11252210453D

 65 68  0  0  1  0  0  0  0  0999 V2000
   -0.1900   22.5820   17.0810 C   0  0  0  0  0  0  0  0  0  0  0  0
   -0.2940   21.5170   16.1540 C   0  0  0  0  0  0  0  0  0  0  0  0
    0.8730   20.9130   15.6360 C   0  0  0  0  0  0  0  0  0  0  0  0
    2.1290   21.3360   16.0950 C   0  0  0  0  0  0  0  0  0  0  0  0
    3.5030   22.7700   17.4960 C   0  0  0  0  0  0  0  0  0  0  0  0
    3.6170   23.8090   18.4370 C   0  0  0  0  0  0  0  0  0  0  0  0
    2.4610   24.4530   18.9080 C   0  0  0  0  0  0  0  0  0  0  0  0
    1.1920   24.0580   18.4490 C   0  0  0  0  0  0  0  0  0  0  0  0
    1.0780   23.0100   17.5130 C   0  0  0  0  0  0  0  0  0  0  0  0
    2.2390   22.3720   17.0320 C   0  0  0  0  0  0  0  0  0  0  0  0
   -1.9140   21.0260   15.5860 S   0  0  0  0  0  0  0  0  0  0  0  0
   -2.1170   13.7490   15.1050 C   0  0  0  0  0  0  0  0  0  0  0  0
   -2.1170   19.4720   16.1180 N   0  0  0  0  0  0  0  0  0  0  0  0
   -1.7810   19.0960   17.5340 C   0  0  1  0  0  0  0  0  0  0  0  0
   -1.9260   20.8450   14.1360 O   0  0  0  0  0  0  0  0  0  0  0  0
   -2.9530   21.8120   16.2680 O   0  0  0  0  0  0  0  0  0  0  0  0
   -2.7270   17.9250   17.9410 C   0  0  0  0  0  0  0  0  0  0  0  0
   -0.2700   18.7640   17.8010 C   0  0  0  0  0  0  0  0  0  0  0  0
    0.4170   18.2750   16.9150 O   0  0  0  0  0  0  0  0  0  0  0  0
    2.3340   19.9420   20.8440 C   0  0  0  0  0  0  0  0  0  0  0  0
   -1.7210   12.4480   14.9490 N   0  3  0  0  0  0  0  0  0  0  0  0
   -2.6800   14.3780   14.0350 N   0  0  0  0  0  0  0  0  0  0  0  0
   -1.9230   14.4790   16.4050 C   0  0  0  0  0  0  0  0  0  0  0  0
   -1.3870   13.8230   17.5400 C   0  0  0  0  0  0  0  0  0  0  0  0
   -1.1950   14.5140   18.7460 C   0  0  0  0  0  0  0  0  0  0  0  0
   -1.5820   15.8530   18.8560 C   0  0  0  0  0  0  0  0  0  0  0  0
   -2.1650   16.5150   17.7690 C   0  0  0  0  0  0  0  0  0  0  0  0
   -2.3020   15.8410   16.5500 C   0  0  0  0  0  0  0  0  0  0  0  0
   -0.1450   19.9870   20.0750 C   0  0  1  0  0  0  0  0  0  0  0  0
    1.1460   20.8180   20.3820 C   0  0  0  0  0  0  0  0  0  0  0  0
    2.5760   18.8570   19.7730 C   0  0  0  0  0  0  0  0  0  0  0  0
    1.3090   18.0060   19.5770 C   0  0  0  0  0  0  0  0  0  0  0  0
    0.1790   18.8540   19.1280 N   0  0  0  0  0  0  0  0  0  0  0  0
   -0.8960   19.5300   21.3610 C   0  0  0  0  0  0  0  0  0  0  0  0
   -1.1480   20.2500   22.3080 O   0  0  0  0  0  0  0  0  0  0  0  0
   -1.1770   18.2330   21.4500 O   0  0  0  0  0  0  0  0  0  0  0  0
   -1.3980   18.0860   22.3890 H   0  0  0  0  0  0  0  0  0  0  0  0
    1.0420   17.4790   20.5030 H   0  0  0  0  0  0  0  0  0  0  0  0
   -1.0750   23.0950   17.4730 H   0  0  0  0  0  0  0  0  0  0  0  0
    0.8290   20.1050   14.9010 H   0  0  0  0  0  0  0  0  0  0  0  0
    3.0270   20.8460   15.7230 H   0  0  0  0  0  0  0  0  0  0  0  0
    4.3980   22.2690   17.1320 H   0  0  0  0  0  0  0  0  0  0  0  0
    4.6000   24.1150   18.8010 H   0  0  0  0  0  0  0  0  0  0  0  0
    2.5490   25.2610   19.6370 H   0  0  0  0  0  0  0  0  0  0  0  0
    0.3020   24.5620   18.8290 H   0  0  0  0  0  0  0  0  0  0  0  0
   -1.4080   19.1110   15.4770 H   0  0  0  0  0  0  0  0  0  0  0  0
   -2.0350   19.9380   18.1920 H   0  0  0  0  0  0  0  0  0  0  0  0
   -3.6720   18.0200   17.3860 H   0  0  0  0  0  0  0  0  0  0  0  0
    2.1210   19.4890   21.8230 H   0  0  0  0  0  0  0  0  0  0  0  0
   -1.3750   11.9320   15.7540 H   0  0  0  0  0  0  0  0  0  0  0  0
   -3.1260   13.7590   13.3550 H   0  0  0  0  0  0  0  0  0  0  0  0
   -1.1120   12.7740   17.5120 H   0  0  0  0  0  0  0  0  0  0  0  0
   -0.7630   14.0150   19.6160 H   0  0  0  0  0  0  0  0  0  0  0  0
   -1.4270   16.3710   19.7970 H   0  0  0  0  0  0  0  0  0  0  0  0
   -2.7140   16.4150   15.7300 H   0  0  0  0  0  0  0  0  0  0  0  0
   -0.8500   20.6850   19.6140 H   0  0  0  0  0  0  0  0  0  0  0  0
    1.4520   21.3310   19.4610 H   0  0  0  0  0  0  0  0  0  0  0  0
    3.4330   18.2180   20.0330 H   0  0  0  0  0  0  0  0  0  0  0  0
    1.5000   17.2240   18.8320 H   0  0  0  0  0  0  0  0  0  0  0  0
   -3.0080   18.0520   18.9930 H   0  0  0  0  0  0  0  0  0  0  0  0
    3.2380   20.5590   20.9750 H   0  0  0  0  0  0  0  0  0  0  0  0
   -2.1990   11.8940   14.2390 H   0  0  0  0  0  0  0  0  0  0  0  0
   -3.1200   15.2830   14.1740 H   0  0  0  0  0  0  0  0  0  0  0  0
    0.9370   21.6180   21.1090 H   0  0  0  0  0  0  0  0  0  0  0  0
    2.8190   19.3290   18.8090 H   0  0  0  0  0  0  0  0  0  0  0  0
  1  2  2  0  0  0  0
  1  9  1  0  0  0  0
  1 39  1  0  0  0  0
  2  3  1  0  0  0  0
  2 11  1  0  0  0  0
  3  4  2  0  0  0  0
  3 40  1  0  0  0  0
  4 10  1  0  0  0  0
  4 41  1  0  0  0  0
  5  6  2  0  0  0  0
  5 10  1  0  0  0  0
  5 42  1  0  0  0  0
  6  7  1  0  0  0  0
  6 43  1  0  0  0  0
  7  8  2  0  0  0  0
  7 44  1  0  0  0  0
  8  9  1  0  0  0  0
  8 45  1  0  0  0  0
  9 10  2  0  0  0  0
 11 13  1  0  0  0  0
 11 15  2  0  0  0  0
 11 16  2  0  0  0  0
 12 21  2  0  0  0  0
 12 22  1  0  0  0  0
 12 23  1  0  0  0  0
 13 14  1  0  0  0  0
 13 46  1  0  0  0  0
 14 17  1  0  0  0  0
 14 18  1  0  0  0  0
 14 47  1  1  0  0  0
 17 27  1  0  0  0  0
 17 48  1  0  0  0  0
 17 60  1  0  0  0  0
 18 19  2  0  0  0  0
 18 33  1  0  0  0  0
 20 30  1  0  0  0  0
 20 31  1  0  0  0  0
 20 49  1  0  0  0  0
 20 61  1  0  0  0  0
 21 50  1  0  0  0  0
 21 62  1  0  0  0  0
 22 51  1  0  0  0  0
 22 63  1  0  0  0  0
 23 24  2  0  0  0  0
 23 28  1  0  0  0  0
 24 25  1  0  0  0  0
 24 52  1  0  0  0  0
 25 26  2  0  0  0  0
 25 53  1  0  0  0  0
 26 27  1  0  0  0  0
 26 54  1  0  0  0  0
 27 28  2  0  0  0  0
 28 55  1  0  0  0  0
 29 30  1  0  0  0  0
 29 33  1  0  0  0  0
 29 34  1  0  0  0  0
 29 56  1  6  0  0  0
 30 57  1  0  0  0  0
 30 64  1  0  0  0  0
 31 32  1  0  0  0  0
 31 58  1  0  0  0  0
 31 65  1  0  0  0  0
 32 33  1  0  0  0  0
 32 38  1  0  0  0  0
 32 59  1  0  0  0  0
 34 35  2  0  0  0  0
 34 36  1  0  0  0  0
 36 37  1  0  0  0  0
M  CHG  1  21   1
M  END
>  <penalty_kcalmol>
15.08

>  <protonation_change>
deprotonated_in_solution

>  <protonation_site>
37

>  <protonation_pKa>
3.21

>  <protonation_pKa_method>
experiment

>  <experiment_pH>
7.8

>  <protonated_energy_kcalmol>
-87.830836

>  <deprotonated_energy_kcalmol>
-184.310209

>  <deltaG_kcalmol>
-8.98

>  <charge>
1

>  <lm5_entropy_jk>
22.813220320094924

>  <number_of_rotatable_bonds>
9

$$$$
