1K1I
 OpenBabel11252210453D

 65 68  0  0  1  0  0  0  0  0999 V2000
   -0.1500   22.4270   17.0570 C   0  0  0  0  0  0  0  0  0  0  0  0
   -0.3200   21.4530   16.0440 C   0  0  0  0  0  0  0  0  0  0  0  0
    0.8050   20.9190   15.3770 C   0  0  0  0  0  0  0  0  0  0  0  0
    2.0900   21.3300   15.7600 C   0  0  0  0  0  0  0  0  0  0  0  0
    3.5610   22.6700   17.1590 C   0  0  0  0  0  0  0  0  0  0  0  0
    3.7440   23.6190   18.1800 C   0  0  0  0  0  0  0  0  0  0  0  0
    2.6250   24.1860   18.8130 C   0  0  0  0  0  0  0  0  0  0  0  0
    1.3270   23.8020   18.4340 C   0  0  0  0  0  0  0  0  0  0  0  0
    1.1450   22.8370   17.4220 C   0  0  0  0  0  0  0  0  0  0  0  0
    2.2670   22.2760   16.7800 C   0  0  0  0  0  0  0  0  0  0  0  0
   -1.9720   20.9700   15.5730 S   0  0  0  0  0  0  0  0  0  0  0  0
   -2.0270   13.8520   15.0010 C   0  0  0  0  0  0  0  0  0  0  0  0
   -2.1400   19.4310   16.1580 N   0  0  0  0  0  0  0  0  0  0  0  0
   -1.7230   19.0810   17.5630 C   0  0  1  0  0  0  0  0  0  0  0  0
   -2.0650   20.7760   14.1240 O   0  0  0  0  0  0  0  0  0  0  0  0
   -2.9640   21.7690   16.3070 O   0  0  0  0  0  0  0  0  0  0  0  0
   -2.6700   17.9240   18.0130 C   0  0  0  0  0  0  0  0  0  0  0  0
   -0.2000   18.7140   17.7630 C   0  0  0  0  0  0  0  0  0  0  0  0
    0.4610   18.3230   16.8090 O   0  0  0  0  0  0  0  0  0  0  0  0
    2.2410   20.3370   20.6480 C   0  0  0  0  0  0  0  0  0  0  0  0
   -1.7230   12.5240   14.8950 N   0  3  0  0  0  0  0  0  0  0  0  0
   -2.5770   14.4840   13.9200 N   0  0  0  0  0  0  0  0  0  0  0  0
   -1.8100   14.5690   16.3010 C   0  0  0  0  0  0  0  0  0  0  0  0
   -1.1170   13.9300   17.3600 C   0  0  0  0  0  0  0  0  0  0  0  0
   -0.9180   14.5800   18.5840 C   0  0  0  0  0  0  0  0  0  0  0  0
   -1.4170   15.8680   18.7780 C   0  0  0  0  0  0  0  0  0  0  0  0
   -2.1120   16.5260   17.7600 C   0  0  0  0  0  0  0  0  0  0  0  0
   -2.2960   15.8840   16.5260 C   0  0  0  0  0  0  0  0  0  0  0  0
   -0.1960   19.4850   20.2620 C   0  0  1  0  0  0  0  0  0  0  0  0
    0.7370   20.7160   20.5220 C   0  0  0  0  0  0  0  0  0  0  0  0
    2.6620   19.4350   19.4650 C   0  0  0  0  0  0  0  0  0  0  0  0
    1.7110   18.2330   19.3130 C   0  0  0  0  0  0  0  0  0  0  0  0
    0.3260   18.7070   19.0780 N   0  0  0  0  0  0  0  0  0  0  0  0
   -0.4050   18.5660   21.5060 C   0  0  0  0  0  0  0  0  0  0  0  0
    0.2710   18.5690   22.5190 O   0  0  0  0  0  0  0  0  0  0  0  0
   -1.6280   18.0370   21.5550 O   0  0  0  0  0  0  0  0  0  0  0  0
   -1.5610   17.4990   22.3830 H   0  0  0  0  0  0  0  0  0  0  0  0
    1.7530   17.5890   20.2020 H   0  0  0  0  0  0  0  0  0  0  0  0
   -1.0050   22.8830   17.5660 H   0  0  0  0  0  0  0  0  0  0  0  0
    0.7020   20.1800   14.5750 H   0  0  0  0  0  0  0  0  0  0  0  0
    2.9600   20.9070   15.2630 H   0  0  0  0  0  0  0  0  0  0  0  0
    4.4270   22.2390   16.6610 H   0  0  0  0  0  0  0  0  0  0  0  0
    4.7500   23.9190   18.4770 H   0  0  0  0  0  0  0  0  0  0  0  0
    2.7660   24.9260   19.6020 H   0  0  0  0  0  0  0  0  0  0  0  0
    0.4670   24.2500   18.9330 H   0  0  0  0  0  0  0  0  0  0  0  0
   -1.4870   19.0450   15.4740 H   0  0  0  0  0  0  0  0  0  0  0  0
   -1.9110   19.9520   18.2090 H   0  0  0  0  0  0  0  0  0  0  0  0
   -3.6440   18.0370   17.5150 H   0  0  0  0  0  0  0  0  0  0  0  0
    2.4350   19.8260   21.6020 H   0  0  0  0  0  0  0  0  0  0  0  0
   -1.5610   12.0050   15.7510 H   0  0  0  0  0  0  0  0  0  0  0  0
   -3.0560   13.8700   13.2560 H   0  0  0  0  0  0  0  0  0  0  0  0
   -0.7130   12.9280   17.2550 H   0  0  0  0  0  0  0  0  0  0  0  0
   -0.3760   14.0920   19.3920 H   0  0  0  0  0  0  0  0  0  0  0  0
   -1.2390   16.3640   19.7240 H   0  0  0  0  0  0  0  0  0  0  0  0
   -2.8180   16.4430   15.7570 H   0  0  0  0  0  0  0  0  0  0  0  0
   -1.2060   19.8640   20.0750 H   0  0  0  0  0  0  0  0  0  0  0  0
    0.6330   21.4140   19.6810 H   0  0  0  0  0  0  0  0  0  0  0  0
    3.6960   19.0880   19.5990 H   0  0  0  0  0  0  0  0  0  0  0  0
    2.0390   17.6120   18.4720 H   0  0  0  0  0  0  0  0  0  0  0  0
   -2.8960   18.0290   19.0810 H   0  0  0  0  0  0  0  0  0  0  0  0
    2.8620   21.2490   20.6640 H   0  0  0  0  0  0  0  0  0  0  0  0
   -2.1880   11.9940   14.1570 H   0  0  0  0  0  0  0  0  0  0  0  0
   -2.9630   15.4180   14.0330 H   0  0  0  0  0  0  0  0  0  0  0  0
    0.4050   21.2720   21.4130 H   0  0  0  0  0  0  0  0  0  0  0  0
    2.6450   20.0170   18.5310 H   0  0  0  0  0  0  0  0  0  0  0  0
  1  2  2  0  0  0  0
  1  9  1  0  0  0  0
  1 39  1  0  0  0  0
  2  3  1  0  0  0  0
  2 11  1  0  0  0  0
  3  4  2  0  0  0  0
  3 40  1  0  0  0  0
  4 10  1  0  0  0  0
  4 41  1  0  0  0  0
  5  6  2  0  0  0  0
  5 10  1  0  0  0  0
  5 42  1  0  0  0  0
  6  7  1  0  0  0  0
  6 43  1  0  0  0  0
  7  8  2  0  0  0  0
  7 44  1  0  0  0  0
  8  9  1  0  0  0  0
  8 45  1  0  0  0  0
  9 10  2  0  0  0  0
 11 13  1  0  0  0  0
 11 15  2  0  0  0  0
 11 16  2  0  0  0  0
 12 21  2  0  0  0  0
 12 22  1  0  0  0  0
 12 23  1  0  0  0  0
 13 14  1  0  0  0  0
 13 46  1  0  0  0  0
 14 17  1  0  0  0  0
 14 18  1  0  0  0  0
 14 47  1  1  0  0  0
 17 27  1  0  0  0  0
 17 48  1  0  0  0  0
 17 60  1  0  0  0  0
 18 19  2  0  0  0  0
 18 33  1  0  0  0  0
 20 30  1  0  0  0  0
 20 31  1  0  0  0  0
 20 49  1  0  0  0  0
 20 61  1  0  0  0  0
 21 50  1  0  0  0  0
 21 62  1  0  0  0  0
 22 51  1  0  0  0  0
 22 63  1  0  0  0  0
 23 24  2  0  0  0  0
 23 28  1  0  0  0  0
 24 25  1  0  0  0  0
 24 52  1  0  0  0  0
 25 26  2  0  0  0  0
 25 53  1  0  0  0  0
 26 27  1  0  0  0  0
 26 54  1  0  0  0  0
 27 28  2  0  0  0  0
 28 55  1  0  0  0  0
 29 30  1  0  0  0  0
 29 33  1  0  0  0  0
 29 34  1  0  0  0  0
 29 56  1  6  0  0  0
 30 57  1  0  0  0  0
 30 64  1  0  0  0  0
 31 32  1  0  0  0  0
 31 58  1  0  0  0  0
 31 65  1  0  0  0  0
 32 33  1  0  0  0  0
 32 38  1  0  0  0  0
 32 59  1  0  0  0  0
 34 35  2  0  0  0  0
 34 36  1  0  0  0  0
 36 37  1  0  0  0  0
M  CHG  1  21   1
M  END
>  <penalty_kcalmol>
15.08

>  <protonation_change>
deprotonated_in_solution

>  <protonation_site>
37

>  <protonation_pKa>
3.21

>  <protonation_pKa_method>
experiment

>  <experiment_pH>
7.8

>  <protonated_energy_kcalmol>
-87.830836

>  <deprotonated_energy_kcalmol>
-184.310209

>  <deltaG_kcalmol>
-8.98

>  <charge>
1

>  <lm5_entropy_jk>
22.813220320094924

>  <number_of_rotatable_bonds>
9

$$$$
