1K1I
 OpenBabel11252210453D

 65 68  0  0  1  0  0  0  0  0999 V2000
   -0.5600   22.7480   16.8740 C   0  0  0  0  0  0  0  0  0  0  0  0
   -0.6520   21.6130   16.0820 C   0  0  0  0  0  0  0  0  0  0  0  0
    0.4730   21.0990   15.4000 C   0  0  0  0  0  0  0  0  0  0  0  0
    1.7430   21.7340   15.5420 C   0  0  0  0  0  0  0  0  0  0  0  0
    3.0890   23.5910   16.5510 C   0  0  0  0  0  0  0  0  0  0  0  0
    3.1560   24.7650   17.3910 C   0  0  0  0  0  0  0  0  0  0  0  0
    1.9960   25.2380   18.0410 C   0  0  0  0  0  0  0  0  0  0  0  0
    0.7660   24.5690   17.8660 C   0  0  0  0  0  0  0  0  0  0  0  0
    0.6820   23.4060   17.0380 C   0  0  0  0  0  0  0  0  0  0  0  0
    1.8520   22.9000   16.3680 C   0  0  0  0  0  0  0  0  0  0  0  0
   -2.1700   20.8310   15.8680 S   0  0  0  0  0  0  0  0  0  0  0  0
   -1.9390   13.8370   15.0520 C   0  0  0  0  0  0  0  0  0  0  0  0
   -1.7630   19.2270   16.3130 N   0  0  0  0  0  0  0  0  0  0  0  0
   -1.5620   18.8980   17.7300 C   0  0  1  0  0  0  0  0  0  0  0  0
   -2.4500   20.8760   14.4610 O   0  0  0  0  0  0  0  0  0  0  0  0
   -3.0810   21.3790   16.8160 O   0  0  0  0  0  0  0  0  0  0  0  0
   -2.4960   17.7690   18.1950 C   0  0  0  0  0  0  0  0  0  0  0  0
   -0.0870   18.6680   18.0210 C   0  0  0  0  0  0  0  0  0  0  0  0
    0.5340   18.1360   17.1000 O   0  0  0  0  0  0  0  0  0  0  0  0
    2.0670   20.6970   20.6950 C   0  0  0  0  0  0  0  0  0  0  0  0
   -1.5300   12.6220   14.8450 N   0  3  0  0  0  0  0  0  0  0  0  0
   -2.5590   14.5170   14.1140 N   0  0  0  0  0  0  0  0  0  0  0  0
   -1.6850   14.4660   16.3940 C   0  0  0  0  0  0  0  0  0  0  0  0
   -0.9510   13.7740   17.3880 C   0  0  0  0  0  0  0  0  0  0  0  0
   -0.7120   14.3700   18.6440 C   0  0  0  0  0  0  0  0  0  0  0  0
   -1.2090   15.6570   18.9080 C   0  0  0  0  0  0  0  0  0  0  0  0
   -1.9460   16.3580   17.9190 C   0  0  0  0  0  0  0  0  0  0  0  0
   -2.1720   15.7500   16.6690 C   0  0  0  0  0  0  0  0  0  0  0  0
   -0.2470   19.8150   20.2320 C   0  0  1  0  0  0  0  0  0  0  0  0
    0.6530   21.0230   20.5920 C   0  0  0  0  0  0  0  0  0  0  0  0
    2.7150   19.5710   19.9480 C   0  0  0  0  0  0  0  0  0  0  0  0
    1.7780   18.3950   19.6130 C   0  0  0  0  0  0  0  0  0  0  0  0
    0.5010   19.0230   19.2100 N   0  0  0  0  0  0  0  0  0  0  0  0
   -0.5820   18.9880   21.4490 C   0  0  0  0  0  0  0  0  0  0  0  0
   -0.9650   19.5460   22.5220 O   0  0  0  0  0  0  0  0  0  0  0  0
   -0.5010   17.7150   21.4050 O   0  0  0  0  0  0  0  0  0  0  0  0
   -0.7170   17.3500   22.2660 H   0  0  0  0  0  0  0  0  0  0  0  0
    1.6340   17.7590   20.4860 H   0  0  0  0  0  0  0  0  0  0  0  0
   -1.4490   23.1350   17.3720 H   0  0  0  0  0  0  0  0  0  0  0  0
    0.3710   20.2180   14.7660 H   0  0  0  0  0  0  0  0  0  0  0  0
    2.6190   21.3370   15.0290 H   0  0  0  0  0  0  0  0  0  0  0  0
    3.9890   23.2300   16.0530 H   0  0  0  0  0  0  0  0  0  0  0  0
    4.1040   25.2860   17.5230 H   0  0  0  0  0  0  0  0  0  0  0  0
    2.0500   26.1200   18.6780 H   0  0  0  0  0  0  0  0  0  0  0  0
   -0.1280   24.9420   18.3660 H   0  0  0  0  0  0  0  0  0  0  0  0
   -0.9050   18.9970   15.8330 H   0  0  0  0  0  0  0  0  0  0  0  0
   -1.8530   19.7540   18.3390 H   0  0  0  0  0  0  0  0  0  0  0  0
   -3.4490   17.8750   17.6770 H   0  0  0  0  0  0  0  0  0  0  0  0
    2.2510   20.4990   21.7510 H   0  0  0  0  0  0  0  0  0  0  0  0
   -1.0530   12.1180   15.5790 H   0  0  0  0  0  0  0  0  0  0  0  0
   -2.7280   14.0950   13.2120 H   0  0  0  0  0  0  0  0  0  0  0  0
   -0.5680   12.7750   17.1810 H   0  0  0  0  0  0  0  0  0  0  0  0
   -0.1450   13.8350   19.4050 H   0  0  0  0  0  0  0  0  0  0  0  0
   -1.0270   16.1200   19.8780 H   0  0  0  0  0  0  0  0  0  0  0  0
   -2.7340   16.2860   15.9050 H   0  0  0  0  0  0  0  0  0  0  0  0
   -1.2060   20.1480   19.8360 H   0  0  0  0  0  0  0  0  0  0  0  0
    0.5310   21.7840   19.8210 H   0  0  0  0  0  0  0  0  0  0  0  0
    3.5360   19.1890   20.5540 H   0  0  0  0  0  0  0  0  0  0  0  0
    2.1860   17.7590   18.8280 H   0  0  0  0  0  0  0  0  0  0  0  0
   -2.5980   17.8650   19.2760 H   0  0  0  0  0  0  0  0  0  0  0  0
    2.5190   21.5610   20.2080 H   0  0  0  0  0  0  0  0  0  0  0  0
   -1.6880   12.1810   13.9500 H   0  0  0  0  0  0  0  0  0  0  0  0
   -2.8670   15.4620   14.2950 H   0  0  0  0  0  0  0  0  0  0  0  0
    0.3370   21.3690   21.5760 H   0  0  0  0  0  0  0  0  0  0  0  0
    3.0420   19.9840   18.9940 H   0  0  0  0  0  0  0  0  0  0  0  0
  1  2  2  0  0  0  0
  1  9  1  0  0  0  0
  1 39  1  0  0  0  0
  2  3  1  0  0  0  0
  2 11  1  0  0  0  0
  3  4  2  0  0  0  0
  3 40  1  0  0  0  0
  4 10  1  0  0  0  0
  4 41  1  0  0  0  0
  5  6  2  0  0  0  0
  5 10  1  0  0  0  0
  5 42  1  0  0  0  0
  6  7  1  0  0  0  0
  6 43  1  0  0  0  0
  7  8  2  0  0  0  0
  7 44  1  0  0  0  0
  8  9  1  0  0  0  0
  8 45  1  0  0  0  0
  9 10  2  0  0  0  0
 11 13  1  0  0  0  0
 11 15  2  0  0  0  0
 11 16  2  0  0  0  0
 12 21  2  0  0  0  0
 12 22  1  0  0  0  0
 12 23  1  0  0  0  0
 13 14  1  0  0  0  0
 13 46  1  0  0  0  0
 14 17  1  0  0  0  0
 14 18  1  0  0  0  0
 14 47  1  1  0  0  0
 17 27  1  0  0  0  0
 17 48  1  0  0  0  0
 17 60  1  0  0  0  0
 18 19  2  0  0  0  0
 18 33  1  0  0  0  0
 20 30  1  0  0  0  0
 20 31  1  0  0  0  0
 20 49  1  0  0  0  0
 20 61  1  0  0  0  0
 21 50  1  0  0  0  0
 21 62  1  0  0  0  0
 22 51  1  0  0  0  0
 22 63  1  0  0  0  0
 23 24  2  0  0  0  0
 23 28  1  0  0  0  0
 24 25  1  0  0  0  0
 24 52  1  0  0  0  0
 25 26  2  0  0  0  0
 25 53  1  0  0  0  0
 26 27  1  0  0  0  0
 26 54  1  0  0  0  0
 27 28  2  0  0  0  0
 28 55  1  0  0  0  0
 29 30  1  0  0  0  0
 29 33  1  0  0  0  0
 29 34  1  0  0  0  0
 29 56  1  6  0  0  0
 30 57  1  0  0  0  0
 30 64  1  0  0  0  0
 31 32  1  0  0  0  0
 31 58  1  0  0  0  0
 31 65  1  0  0  0  0
 32 33  1  0  0  0  0
 32 38  1  0  0  0  0
 32 59  1  0  0  0  0
 34 35  2  0  0  0  0
 34 36  1  0  0  0  0
 36 37  1  0  0  0  0
M  CHG  1  21   1
M  END
>  <penalty_kcalmol>
15.08

>  <protonation_change>
deprotonated_in_solution

>  <protonation_site>
37

>  <protonation_pKa>
3.21

>  <protonation_pKa_method>
experiment

>  <experiment_pH>
7.8

>  <protonated_energy_kcalmol>
-87.830836

>  <deprotonated_energy_kcalmol>
-184.310209

>  <deltaG_kcalmol>
-8.98

>  <charge>
1

>  <lm5_entropy_jk>
22.813220320094924

>  <number_of_rotatable_bonds>
9

$$$$
