1K1L
 OpenBabel11252210453D

 61 64  0  0  1  0  0  0  0  0999 V2000
    0.7830   21.8490   16.7940 C   0  0  0  0  0  0  0  0  0  0  0  0
    0.2950   21.1100   15.7180 C   0  0  0  0  0  0  0  0  0  0  0  0
    1.1650   20.4940   14.8030 C   0  0  0  0  0  0  0  0  0  0  0  0
    2.5700   20.6050   14.9610 C   0  0  0  0  0  0  0  0  0  0  0  0
    4.4940   21.5130   16.2660 C   0  0  0  0  0  0  0  0  0  0  0  0
    4.9900   22.2720   17.3760 C   0  0  0  0  0  0  0  0  0  0  0  0
    4.0800   22.8800   18.2760 C   0  0  0  0  0  0  0  0  0  0  0  0
    2.6900   22.7380   18.0870 C   0  0  0  0  0  0  0  0  0  0  0  0
    2.1850   21.9820   16.9810 C   0  0  0  0  0  0  0  0  0  0  0  0
    3.0880   21.3580   16.0580 C   0  0  0  0  0  0  0  0  0  0  0  0
   -1.4010   20.9270   15.4680 S   0  0  0  0  0  0  0  0  0  0  0  0
   -1.9190   13.6620   15.2450 C   0  0  0  0  0  0  0  0  0  0  0  0
   -1.5370   19.2970   16.0000 N   0  0  0  0  0  0  0  0  0  0  0  0
   -1.3690   18.9800   17.4250 C   0  0  1  0  0  0  0  0  0  0  0  0
   -1.6550   20.9760   14.0530 O   0  0  0  0  0  0  0  0  0  0  0  0
   -2.0710   21.7940   16.3770 O   0  0  0  0  0  0  0  0  0  0  0  0
   -2.4120   17.9500   17.8980 C   0  0  0  0  0  0  0  0  0  0  0  0
    0.0680   18.5920   17.7080 C   0  0  0  0  0  0  0  0  0  0  0  0
    0.6460   18.0690   16.7560 O   0  0  0  0  0  0  0  0  0  0  0  0
    1.9940   20.0670   20.9110 N   0  0  0  0  0  0  0  0  0  0  0  0
   -1.4910   12.4310   15.1450 N   0  3  0  0  0  0  0  0  0  0  0  0
   -2.5300   14.2590   14.2460 N   0  0  0  0  0  0  0  0  0  0  0  0
   -1.6930   14.4200   16.5230 C   0  0  0  0  0  0  0  0  0  0  0  0
   -1.0480   13.8120   17.6200 C   0  0  0  0  0  0  0  0  0  0  0  0
   -0.8470   14.5380   18.8090 C   0  0  0  0  0  0  0  0  0  0  0  0
   -1.2920   15.8640   18.9000 C   0  0  0  0  0  0  0  0  0  0  0  0
   -1.9260   16.4890   17.8010 C   0  0  0  0  0  0  0  0  0  0  0  0
   -2.1260   15.7520   16.6220 C   0  0  0  0  0  0  0  0  0  0  0  0
   -0.1530   19.0500   20.1300 C   0  0  0  0  0  0  0  0  0  0  0  0
    0.5550   20.2230   20.8540 C   0  0  0  0  0  0  0  0  0  0  0  0
    2.7790   19.3950   19.8380 C   0  0  0  0  0  0  0  0  0  0  0  0
    2.0180   18.2400   19.1440 C   0  0  0  0  0  0  0  0  0  0  0  0
    0.6620   18.7740   18.9250 N   0  0  0  0  0  0  0  0  0  0  0  0
    1.9870   17.3580   19.7840 H   0  0  0  0  0  0  0  0  0  0  0  0
    0.0910   22.3230   17.4900 H   0  0  0  0  0  0  0  0  0  0  0  0
    0.7570   19.9270   13.9660 H   0  0  0  0  0  0  0  0  0  0  0  0
    3.2450   20.1220   14.2550 H   0  0  0  0  0  0  0  0  0  0  0  0
    5.1960   21.0490   15.5730 H   0  0  0  0  0  0  0  0  0  0  0  0
    6.0640   22.3810   17.5270 H   0  0  0  0  0  0  0  0  0  0  0  0
    4.4560   23.4600   19.1180 H   0  0  0  0  0  0  0  0  0  0  0  0
    1.9970   23.2060   18.7860 H   0  0  0  0  0  0  0  0  0  0  0  0
   -0.8410   18.7650   15.4970 H   0  0  0  0  0  0  0  0  0  0  0  0
   -1.5660   19.8700   18.0220 H   0  0  0  0  0  0  0  0  0  0  0  0
   -3.3060   18.0580   17.2840 H   0  0  0  0  0  0  0  0  0  0  0  0
    2.1860   19.5540   21.7600 H   0  0  0  0  0  0  0  0  0  0  0  0
   -1.0190   11.9960   15.9240 H   0  0  0  0  0  0  0  0  0  0  0  0
   -2.6830   13.7640   13.3790 H   0  0  0  0  0  0  0  0  0  0  0  0
   -0.7050   12.7800   17.5470 H   0  0  0  0  0  0  0  0  0  0  0  0
   -0.3470   14.0700   19.6570 H   0  0  0  0  0  0  0  0  0  0  0  0
   -1.1480   16.4190   19.8270 H   0  0  0  0  0  0  0  0  0  0  0  0
   -2.6240   16.2200   15.7730 H   0  0  0  0  0  0  0  0  0  0  0  0
   -1.1670   19.3330   19.8480 H   0  0  0  0  0  0  0  0  0  0  0  0
    0.3260   21.1480   20.3250 H   0  0  0  0  0  0  0  0  0  0  0  0
    3.6910   18.9920   20.2780 H   0  0  0  0  0  0  0  0  0  0  0  0
    2.4960   17.9260   18.2160 H   0  0  0  0  0  0  0  0  0  0  0  0
   -2.6060   18.1530   18.9510 H   0  0  0  0  0  0  0  0  0  0  0  0
   -1.6330   11.9150   14.2880 H   0  0  0  0  0  0  0  0  0  0  0  0
   -2.8460   15.2130   14.3450 H   0  0  0  0  0  0  0  0  0  0  0  0
   -0.2340   18.1720   20.7710 H   0  0  0  0  0  0  0  0  0  0  0  0
    0.1880   20.2410   21.8800 H   0  0  0  0  0  0  0  0  0  0  0  0
    2.9840   20.1460   19.0750 H   0  0  0  0  0  0  0  0  0  0  0  0
  1  2  2  0  0  0  0
  1  9  1  0  0  0  0
  1 35  1  0  0  0  0
  2  3  1  0  0  0  0
  2 11  1  0  0  0  0
  3  4  2  0  0  0  0
  3 36  1  0  0  0  0
  4 10  1  0  0  0  0
  4 37  1  0  0  0  0
  5  6  2  0  0  0  0
  5 10  1  0  0  0  0
  5 38  1  0  0  0  0
  6  7  1  0  0  0  0
  6 39  1  0  0  0  0
  7  8  2  0  0  0  0
  7 40  1  0  0  0  0
  8  9  1  0  0  0  0
  8 41  1  0  0  0  0
  9 10  2  0  0  0  0
 11 13  1  0  0  0  0
 11 15  2  0  0  0  0
 11 16  2  0  0  0  0
 12 21  2  0  0  0  0
 12 22  1  0  0  0  0
 12 23  1  0  0  0  0
 13 14  1  0  0  0  0
 13 42  1  0  0  0  0
 14 17  1  0  0  0  0
 14 18  1  0  0  0  0
 14 43  1  1  0  0  0
 17 27  1  0  0  0  0
 17 44  1  0  0  0  0
 17 56  1  0  0  0  0
 18 19  2  0  0  0  0
 18 33  1  0  0  0  0
 20 30  1  0  0  0  0
 20 31  1  0  0  0  0
 20 45  1  0  0  0  0
 21 46  1  0  0  0  0
 21 57  1  0  0  0  0
 22 47  1  0  0  0  0
 22 58  1  0  0  0  0
 23 24  2  0  0  0  0
 23 28  1  0  0  0  0
 24 25  1  0  0  0  0
 24 48  1  0  0  0  0
 25 26  2  0  0  0  0
 25 49  1  0  0  0  0
 26 27  1  0  0  0  0
 26 50  1  0  0  0  0
 27 28  2  0  0  0  0
 28 51  1  0  0  0  0
 29 30  1  0  0  0  0
 29 33  1  0  0  0  0
 29 52  1  0  0  0  0
 29 59  1  0  0  0  0
 30 53  1  0  0  0  0
 30 60  1  0  0  0  0
 31 32  1  0  0  0  0
 31 54  1  0  0  0  0
 31 61  1  0  0  0  0
 32 33  1  0  0  0  0
 32 34  1  0  0  0  0
 32 55  1  0  0  0  0
M  CHG  1  21   1
M  END
>  <penalty_kcalmol>
3.05

>  <protonation_change>
protonated_in_solution

>  <protonation_site>
20

>  <protonation_pKa>
7.49

>  <protonation_pKa_method>
experiment

>  <experiment_pH>
7.8

>  <protonated_energy_kcalmol>
105.798904

>  <deprotonated_energy_kcalmol>
18.790879

>  <deltaG_kcalmol>
-9.43

>  <charge>
1

>  <lm5_entropy_jk>
21.763587254956963

>  <number_of_rotatable_bonds>
8

$$$$
