6T0M
 OpenBabel11252210453D

 56 58  0  0  1  0  0  0  0  0999 V2000
   -0.5720   20.3560   15.6730 N   0  3  0  0  0  0  0  0  0  0  0  0
    0.3030   20.7150   16.8000 C   0  0  1  0  0  0  0  0  0  0  0  0
   -1.3190   17.6610   19.9010 O   0  0  0  0  0  0  0  0  0  0  0  0
    0.5830   19.4790   17.6400 C   0  0  0  0  0  0  0  0  0  0  0  0
    0.5990   19.5940   18.9790 N   0  0  0  0  0  0  0  0  0  0  0  0
    0.7650   18.4100   17.0870 O   0  0  0  0  0  0  0  0  0  0  0  0
    0.9480   18.4420   19.8220 C   0  0  2  0  0  0  0  0  0  0  0  0
    0.2850   16.1280   19.5530 N   0  0  0  0  0  0  0  0  0  0  0  0
   -0.1320   17.3730   19.7670 C   0  0  0  0  0  0  0  0  0  0  0  0
   -1.3560   12.3960   15.2990 N   0  0  0  0  0  0  0  0  0  0  0  0
   -0.6690   15.0460   19.3640 C   0  0  0  0  0  0  0  0  0  0  0  0
   -1.8050   14.6410   15.2580 N   0  3  0  0  0  0  0  0  0  0  0  0
   -1.1020   14.8960   17.9230 C   0  0  0  0  0  0  0  0  0  0  0  0
   -2.2080   16.8970   15.0800 N   0  0  0  0  0  0  0  0  0  0  0  0
   -1.0620   13.6530   17.3100 C   0  0  0  0  0  0  0  0  0  0  0  0
   -1.4150   13.5590   15.9660 C   0  0  0  0  0  0  0  0  0  0  0  0
   -1.8530   15.8480   15.8590 C   0  0  0  0  0  0  0  0  0  0  0  0
   -1.5160   16.0090   17.1980 C   0  0  0  0  0  0  0  0  0  0  0  0
    1.0290   19.0410   21.2330 C   0  0  0  0  0  0  0  0  0  0  0  0
    1.1410   20.5430   21.0300 C   0  0  0  0  0  0  0  0  0  0  0  0
    0.3470   20.8030   19.7790 C   0  0  0  0  0  0  0  0  0  0  0  0
    1.6010   21.3750   16.3120 C   0  0  0  0  0  0  0  0  0  0  0  0
    2.3920   22.0140   17.4240 C   0  0  0  0  0  0  0  0  0  0  0  0
    2.1470   23.3300   17.8030 C   0  0  0  0  0  0  0  0  0  0  0  0
    2.7540   23.8690   18.9230 C   0  0  0  0  0  0  0  0  0  0  0  0
    3.6280   23.1090   19.6760 C   0  0  0  0  0  0  0  0  0  0  0  0
    3.9080   21.8150   19.2920 C   0  0  0  0  0  0  0  0  0  0  0  0
    3.2980   21.2710   18.1730 C   0  0  0  0  0  0  0  0  0  0  0  0
   -0.7590   21.1860   15.1100 H   0  0  0  0  0  0  0  0  0  0  0  0
   -1.4510   19.9820   16.0310 H   0  0  0  0  0  0  0  0  0  0  0  0
   -0.1120   19.6510   15.0970 H   0  0  0  0  0  0  0  0  0  0  0  0
   -0.1970   21.4370   17.4110 H   0  0  0  0  0  0  0  0  0  0  0  0
    1.8530   17.9650   19.5090 H   0  0  0  0  0  0  0  0  0  0  0  0
    1.2500   15.9370   19.5220 H   0  0  0  0  0  0  0  0  0  0  0  0
   -1.6120   12.3600   14.3490 H   0  0  0  0  0  0  0  0  0  0  0  0
   -1.0570   11.5790   15.7600 H   0  0  0  0  0  0  0  0  0  0  0  0
   -0.2160   14.1300   19.6830 H   0  0  0  0  0  0  0  0  0  0  0  0
   -1.5400   15.2780   19.9410 H   0  0  0  0  0  0  0  0  0  0  0  0
   -2.4410   16.7510   14.1350 H   0  0  0  0  0  0  0  0  0  0  0  0
   -2.2330   17.8050   15.4590 H   0  0  0  0  0  0  0  0  0  0  0  0
    1.8890   18.6680   21.7490 H   0  0  0  0  0  0  0  0  0  0  0  0
    0.1750   18.7830   21.8240 H   0  0  0  0  0  0  0  0  0  0  0  0
    0.7240   21.0710   21.8620 H   0  0  0  0  0  0  0  0  0  0  0  0
    2.1560   20.8720   20.9490 H   0  0  0  0  0  0  0  0  0  0  0  0
   -0.6950   20.9100   19.9980 H   0  0  0  0  0  0  0  0  0  0  0  0
    0.6250   21.7080   19.2800 H   0  0  0  0  0  0  0  0  0  0  0  0
    1.3510   22.1290   15.5950 H   0  0  0  0  0  0  0  0  0  0  0  0
    2.2110   20.6050   15.8870 H   0  0  0  0  0  0  0  0  0  0  0  0
    1.5050   23.9110   17.2420 H   0  0  0  0  0  0  0  0  0  0  0  0
    2.5530   24.8430   19.1970 H   0  0  0  0  0  0  0  0  0  0  0  0
    4.0680   23.5070   20.5200 H   0  0  0  0  0  0  0  0  0  0  0  0
    4.5750   21.2490   19.8400 H   0  0  0  0  0  0  0  0  0  0  0  0
    3.5190   20.3030   17.8920 H   0  0  0  0  0  0  0  0  0  0  0  0
   -2.0590   14.5470   14.2850 H   0  0  0  0  0  0  0  0  0  0  0  0
   -0.7600   12.7670   17.8690 H   0  0  0  0  0  0  0  0  0  0  0  0
   -1.5750   16.9890   17.6710 H   0  0  0  0  0  0  0  0  0  0  0  0
  1  2  1  0  0  0  0
  1 29  1  0  0  0  0
  1 30  1  0  0  0  0
  1 31  1  0  0  0  0
  2  4  1  0  0  0  0
  2 22  1  0  0  0  0
  2 32  1  1  0  0  0
  3  9  2  0  0  0  0
  4  5  1  0  0  0  0
  4  6  2  0  0  0  0
  5  7  1  0  0  0  0
  5 21  1  0  0  0  0
  7  9  1  0  0  0  0
  7 19  1  0  0  0  0
  7 33  1  6  0  0  0
  8  9  1  0  0  0  0
  8 11  1  0  0  0  0
  8 34  1  0  0  0  0
 10 16  1  0  0  0  0
 10 35  1  0  0  0  0
 10 36  1  0  0  0  0
 11 13  1  0  0  0  0
 11 37  1  0  0  0  0
 11 38  1  0  0  0  0
 12 16  2  0  0  0  0
 12 17  1  0  0  0  0
 12 54  1  0  0  0  0
 13 15  2  0  0  0  0
 13 18  1  0  0  0  0
 14 17  1  0  0  0  0
 14 39  1  0  0  0  0
 14 40  1  0  0  0  0
 15 16  1  0  0  0  0
 15 55  1  0  0  0  0
 17 18  2  0  0  0  0
 18 56  1  0  0  0  0
 19 20  1  0  0  0  0
 19 41  1  0  0  0  0
 19 42  1  0  0  0  0
 20 21  1  0  0  0  0
 20 43  1  0  0  0  0
 20 44  1  0  0  0  0
 21 45  1  0  0  0  0
 21 46  1  0  0  0  0
 22 23  1  0  0  0  0
 22 47  1  0  0  0  0
 22 48  1  0  0  0  0
 23 24  2  0  0  0  0
 23 28  1  0  0  0  0
 24 25  1  0  0  0  0
 24 49  1  0  0  0  0
 25 26  2  0  0  0  0
 25 50  1  0  0  0  0
 26 27  1  0  0  0  0
 26 51  1  0  0  0  0
 27 28  2  0  0  0  0
 27 52  1  0  0  0  0
 28 53  1  0  0  0  0
M  CHG  2   1   1  12   1
M  END
>  <number_of_rotatable_bonds>
8

>  <lm5_entropy_jk>
21.57145520137845

>  <protonation_change>
deprotonated_in_solution

>  <protonation_site>
54

>  <protonation_pKa>
6.4

>  <protonation_pKa_method>
experiment

>  <experiment_pH>
7.8

>  <protonated_energy_kcalmol>
116.491059

>  <deprotonated_energy_kcalmol>
22.556134

>  <deltaG_kcalmol>
-5.69

>  <charge>
2

$$$$
