1K1L
 OpenBabel11252210453D

 61 64  0  0  1  0  0  0  0  0999 V2000
    0.5490   22.0920   16.4360 C   0  0  0  0  0  0  0  0  0  0  0  0
    0.0170   21.4560   15.3360 C   0  0  0  0  0  0  0  0  0  0  0  0
    0.8790   20.9390   14.3240 C   0  0  0  0  0  0  0  0  0  0  0  0
    2.2420   21.0520   14.4450 C   0  0  0  0  0  0  0  0  0  0  0  0
    4.2410   21.7970   15.7530 C   0  0  0  0  0  0  0  0  0  0  0  0
    4.7630   22.4270   16.8540 C   0  0  0  0  0  0  0  0  0  0  0  0
    3.9010   22.9830   17.8470 C   0  0  0  0  0  0  0  0  0  0  0  0
    2.5400   22.8910   17.7150 C   0  0  0  0  0  0  0  0  0  0  0  0
    1.9640   22.2280   16.5810 C   0  0  0  0  0  0  0  0  0  0  0  0
    2.8230   21.6860   15.5870 C   0  0  0  0  0  0  0  0  0  0  0  0
   -1.6900   21.1860   15.1890 S   0  0  0  0  0  0  0  0  0  0  0  0
   -2.1090   13.8360   14.9960 C   0  0  0  0  0  0  0  0  0  0  0  0
   -1.8670   19.5900   15.8210 N   0  0  0  0  0  0  0  0  0  0  0  0
   -1.6890   19.2420   17.2320 C   0  0  1  0  0  0  0  0  0  0  0  0
   -2.1220   21.0550   13.7960 O   0  0  0  0  0  0  0  0  0  0  0  0
   -2.4470   22.1410   15.9950 O   0  0  0  0  0  0  0  0  0  0  0  0
   -2.6530   18.0870   17.6310 C   0  0  0  0  0  0  0  0  0  0  0  0
   -0.2210   18.8060   17.5170 C   0  0  0  0  0  0  0  0  0  0  0  0
    0.4570   18.2640   16.6490 O   0  0  0  0  0  0  0  0  0  0  0  0
    1.9700   20.3330   20.7950 N   0  0  0  0  0  0  0  0  0  0  0  0
   -1.6590   12.5540   14.8640 N   0  3  0  0  0  0  0  0  0  0  0  0
   -2.7840   14.3400   13.9230 N   0  0  0  0  0  0  0  0  0  0  0  0
   -1.8290   14.6330   16.2090 C   0  0  0  0  0  0  0  0  0  0  0  0
   -1.1810   14.0420   17.3120 C   0  0  0  0  0  0  0  0  0  0  0  0
   -0.9720   14.7780   18.4780 C   0  0  0  0  0  0  0  0  0  0  0  0
   -1.4330   16.0920   18.5770 C   0  0  0  0  0  0  0  0  0  0  0  0
   -2.0960   16.6970   17.4960 C   0  0  0  0  0  0  0  0  0  0  0  0
   -2.2650   15.9690   16.3120 C   0  0  0  0  0  0  0  0  0  0  0  0
   -0.3350   19.6970   19.9210 C   0  0  0  0  0  0  0  0  0  0  0  0
    0.6080   20.8140   20.4440 C   0  0  0  0  0  0  0  0  0  0  0  0
    2.5760   19.5880   19.6580 C   0  0  0  0  0  0  0  0  0  0  0  0
    1.6790   18.4620   19.0980 C   0  0  0  0  0  0  0  0  0  0  0  0
    0.2930   18.9390   18.8050 N   0  0  0  0  0  0  0  0  0  0  0  0
    1.6000   17.6150   19.8300 H   0  0  0  0  0  0  0  0  0  0  0  0
   -0.0860   22.5100   17.2310 H   0  0  0  0  0  0  0  0  0  0  0  0
    0.4520   20.4510   13.4420 H   0  0  0  0  0  0  0  0  0  0  0  0
    2.9090   20.6640   13.6670 H   0  0  0  0  0  0  0  0  0  0  0  0
    4.8970   21.3670   14.9890 H   0  0  0  0  0  0  0  0  0  0  0  0
    5.8460   22.5160   16.9920 H   0  0  0  0  0  0  0  0  0  0  0  0
    4.3480   23.4810   18.7150 H   0  0  0  0  0  0  0  0  0  0  0  0
    1.8750   23.3240   18.4710 H   0  0  0  0  0  0  0  0  0  0  0  0
   -1.7180   18.7780   15.1800 H   0  0  0  0  0  0  0  0  0  0  0  0
   -1.9740   20.1450   17.8470 H   0  0  0  0  0  0  0  0  0  0  0  0
   -3.5790   18.1830   16.9930 H   0  0  0  0  0  0  0  0  0  0  0  0
    1.9200   19.7230   21.6220 H   0  0  0  0  0  0  0  0  0  0  0  0
   -1.1100   12.0680   15.6020 H   0  0  0  0  0  0  0  0  0  0  0  0
   -3.1180   13.6850   13.1700 H   0  0  0  0  0  0  0  0  0  0  0  0
   -0.8520   13.0020   17.2980 H   0  0  0  0  0  0  0  0  0  0  0  0
   -0.4620   14.3150   19.3300 H   0  0  0  0  0  0  0  0  0  0  0  0
   -1.2800   16.6520   19.5060 H   0  0  0  0  0  0  0  0  0  0  0  0
   -2.7490   16.4740   15.4770 H   0  0  0  0  0  0  0  0  0  0  0  0
   -1.3030   20.1670   19.6150 H   0  0  0  0  0  0  0  0  0  0  0  0
    0.7090   21.6090   19.6580 H   0  0  0  0  0  0  0  0  0  0  0  0
    3.5450   19.1400   20.0030 H   0  0  0  0  0  0  0  0  0  0  0  0
    2.1330   18.0750   18.1530 H   0  0  0  0  0  0  0  0  0  0  0  0
   -2.9810   18.2500   18.6910 H   0  0  0  0  0  0  0  0  0  0  0  0
   -2.0740   11.9140   14.1460 H   0  0  0  0  0  0  0  0  0  0  0  0
   -3.1860   15.2980   13.9120 H   0  0  0  0  0  0  0  0  0  0  0  0
   -0.5560   18.9640   20.7410 H   0  0  0  0  0  0  0  0  0  0  0  0
    0.1410   21.2840   21.3520 H   0  0  0  0  0  0  0  0  0  0  0  0
    2.7900   20.3310   18.8440 H   0  0  0  0  0  0  0  0  0  0  0  0
  1  2  2  0  0  0  0
  1  9  1  0  0  0  0
  1 35  1  0  0  0  0
  2  3  1  0  0  0  0
  2 11  1  0  0  0  0
  3  4  2  0  0  0  0
  3 36  1  0  0  0  0
  4 10  1  0  0  0  0
  4 37  1  0  0  0  0
  5  6  2  0  0  0  0
  5 10  1  0  0  0  0
  5 38  1  0  0  0  0
  6  7  1  0  0  0  0
  6 39  1  0  0  0  0
  7  8  2  0  0  0  0
  7 40  1  0  0  0  0
  8  9  1  0  0  0  0
  8 41  1  0  0  0  0
  9 10  2  0  0  0  0
 11 13  1  0  0  0  0
 11 15  2  0  0  0  0
 11 16  2  0  0  0  0
 12 21  2  0  0  0  0
 12 22  1  0  0  0  0
 12 23  1  0  0  0  0
 13 14  1  0  0  0  0
 13 42  1  0  0  0  0
 14 17  1  0  0  0  0
 14 18  1  0  0  0  0
 14 43  1  1  0  0  0
 17 27  1  0  0  0  0
 17 44  1  0  0  0  0
 17 56  1  0  0  0  0
 18 19  2  0  0  0  0
 18 33  1  0  0  0  0
 20 30  1  0  0  0  0
 20 31  1  0  0  0  0
 20 45  1  0  0  0  0
 21 46  1  0  0  0  0
 21 57  1  0  0  0  0
 22 47  1  0  0  0  0
 22 58  1  0  0  0  0
 23 24  2  0  0  0  0
 23 28  1  0  0  0  0
 24 25  1  0  0  0  0
 24 48  1  0  0  0  0
 25 26  2  0  0  0  0
 25 49  1  0  0  0  0
 26 27  1  0  0  0  0
 26 50  1  0  0  0  0
 27 28  2  0  0  0  0
 28 51  1  0  0  0  0
 29 30  1  0  0  0  0
 29 33  1  0  0  0  0
 29 52  1  0  0  0  0
 29 59  1  0  0  0  0
 30 53  1  0  0  0  0
 30 60  1  0  0  0  0
 31 32  1  0  0  0  0
 31 54  1  0  0  0  0
 31 61  1  0  0  0  0
 32 33  1  0  0  0  0
 32 34  1  0  0  0  0
 32 55  1  0  0  0  0
M  CHG  1  21   1
M  END
>  <penalty_kcalmol>
3.05

>  <protonation_change>
protonated_in_solution

>  <protonation_site>
20

>  <protonation_pKa>
7.49

>  <protonation_pKa_method>
experiment

>  <experiment_pH>
7.8

>  <protonated_energy_kcalmol>
105.798904

>  <deprotonated_energy_kcalmol>
18.790879

>  <deltaG_kcalmol>
-9.43

>  <charge>
1

>  <lm5_entropy_jk>
21.763587254956963

>  <number_of_rotatable_bonds>
8

$$$$
