1d_1k1l_var1.pdb
 OpenBabel11252210453D

 61 64  0  0  1  0  0  0  0  0999 V2000
    0.6680   21.9760   16.6490 C   0  0  0  0  0  0  0  0  0  0  0  0
    0.1370   21.3780   15.5270 C   0  0  0  0  0  0  0  0  0  0  0  0
    1.0000   20.8910   14.5020 C   0  0  0  0  0  0  0  0  0  0  0  0
    2.3620   21.0160   14.6190 C   0  0  0  0  0  0  0  0  0  0  0  0
    4.3570   21.7850   15.9200 C   0  0  0  0  0  0  0  0  0  0  0  0
    4.8770   22.3990   17.0300 C   0  0  0  0  0  0  0  0  0  0  0  0
    4.0140   22.8890   18.0570 C   0  0  0  0  0  0  0  0  0  0  0  0
    2.6550   22.7580   17.9430 C   0  0  0  0  0  0  0  0  0  0  0  0
    2.0810   22.1250   16.7910 C   0  0  0  0  0  0  0  0  0  0  0  0
    2.9410   21.6340   15.7710 C   0  0  0  0  0  0  0  0  0  0  0  0
   -1.5710   21.1380   15.3580 S   0  0  0  0  0  0  0  0  0  0  0  0
   -2.0840   13.8600   15.1000 C   0  0  0  0  0  0  0  0  0  0  0  0
   -1.7940   19.5420   15.9760 N   0  0  0  0  0  0  0  0  0  0  0  0
   -1.6140   19.1880   17.3860 C   0  0  1  0  0  0  0  0  0  0  0  0
   -1.9830   21.0380   13.9570 O   0  0  0  0  0  0  0  0  0  0  0  0
   -2.3200   22.1020   16.1620 O   0  0  0  0  0  0  0  0  0  0  0  0
   -2.6110   18.0650   17.7940 C   0  0  0  0  0  0  0  0  0  0  0  0
   -0.1590   18.7100   17.6600 C   0  0  0  0  0  0  0  0  0  0  0  0
    0.5160   18.1930   16.7730 O   0  0  0  0  0  0  0  0  0  0  0  0
    2.0210   20.1260   20.9790 N   0  0  0  0  0  0  0  0  0  0  0  0
   -1.7320   12.5470   14.9730 N   0  3  0  0  0  0  0  0  0  0  0  0
   -2.6580   14.4240   13.9980 N   0  0  0  0  0  0  0  0  0  0  0  0
   -1.8090   14.6240   16.3350 C   0  0  0  0  0  0  0  0  0  0  0  0
   -1.1840   14.0070   17.4370 C   0  0  0  0  0  0  0  0  0  0  0  0
   -1.0150   14.7100   18.6300 C   0  0  0  0  0  0  0  0  0  0  0  0
   -1.4720   16.0230   18.7480 C   0  0  0  0  0  0  0  0  0  0  0  0
   -2.0880   16.6630   17.6590 C   0  0  0  0  0  0  0  0  0  0  0  0
   -2.2340   15.9620   16.4560 C   0  0  0  0  0  0  0  0  0  0  0  0
   -0.2820   19.4950   20.1000 C   0  0  0  0  0  0  0  0  0  0  0  0
    0.6530   20.6070   20.6480 C   0  0  0  0  0  0  0  0  0  0  0  0
    2.6250   19.4190   19.8170 C   0  0  0  0  0  0  0  0  0  0  0  0
    1.7320   18.2990   19.2380 C   0  0  0  0  0  0  0  0  0  0  0  0
    0.3480   18.7850   18.9540 N   0  0  0  0  0  0  0  0  0  0  0  0
    1.6480   17.4430   19.9580 H   0  0  0  0  0  0  0  0  0  0  0  0
    0.0330   22.3570   17.4620 H   0  0  0  0  0  0  0  0  0  0  0  0
    0.5730   20.4170   13.6120 H   0  0  0  0  0  0  0  0  0  0  0  0
    3.0290   20.6510   13.8300 H   0  0  0  0  0  0  0  0  0  0  0  0
    5.0140   21.4010   15.1320 H   0  0  0  0  0  0  0  0  0  0  0  0
    5.9580   22.5240   17.1520 H   0  0  0  0  0  0  0  0  0  0  0  0
    4.4600   23.3670   18.9370 H   0  0  0  0  0  0  0  0  0  0  0  0
    1.9900   23.1380   18.7260 H   0  0  0  0  0  0  0  0  0  0  0  0
   -1.6440   18.7360   15.3270 H   0  0  0  0  0  0  0  0  0  0  0  0
   -1.8610   20.1000   18.0030 H   0  0  0  0  0  0  0  0  0  0  0  0
   -3.5360   18.1860   17.1590 H   0  0  0  0  0  0  0  0  0  0  0  0
    1.9750   19.4890   21.7840 H   0  0  0  0  0  0  0  0  0  0  0  0
   -1.3050   12.0050   15.7470 H   0  0  0  0  0  0  0  0  0  0  0  0
   -3.0530   13.7890   13.2540 H   0  0  0  0  0  0  0  0  0  0  0  0
   -0.8360   12.9740   17.3950 H   0  0  0  0  0  0  0  0  0  0  0  0
   -0.5330   14.2260   19.4870 H   0  0  0  0  0  0  0  0  0  0  0  0
   -1.3430   16.5570   19.6960 H   0  0  0  0  0  0  0  0  0  0  0  0
   -2.6910   16.4910   15.6200 H   0  0  0  0  0  0  0  0  0  0  0  0
   -1.2600   19.9590   19.8210 H   0  0  0  0  0  0  0  0  0  0  0  0
    0.7430   21.4230   19.8830 H   0  0  0  0  0  0  0  0  0  0  0  0
    3.6010   18.9720   20.1430 H   0  0  0  0  0  0  0  0  0  0  0  0
    2.1870   17.9260   18.2880 H   0  0  0  0  0  0  0  0  0  0  0  0
   -2.9290   18.2400   18.8550 H   0  0  0  0  0  0  0  0  0  0  0  0
   -2.1440   11.9630   14.2050 H   0  0  0  0  0  0  0  0  0  0  0  0
   -2.9890   15.4090   13.9790 H   0  0  0  0  0  0  0  0  0  0  0  0
   -0.4800   18.7320   20.8990 H   0  0  0  0  0  0  0  0  0  0  0  0
    0.1890   21.0460   21.5720 H   0  0  0  0  0  0  0  0  0  0  0  0
    2.8220   20.1850   19.0200 H   0  0  0  0  0  0  0  0  0  0  0  0
  1  2  2  0  0  0  0
  1  9  1  0  0  0  0
  1 35  1  0  0  0  0
  2  3  1  0  0  0  0
  2 11  1  0  0  0  0
  3  4  2  0  0  0  0
  3 36  1  0  0  0  0
  4 10  1  0  0  0  0
  4 37  1  0  0  0  0
  5  6  2  0  0  0  0
  5 10  1  0  0  0  0
  5 38  1  0  0  0  0
  6  7  1  0  0  0  0
  6 39  1  0  0  0  0
  7  8  2  0  0  0  0
  7 40  1  0  0  0  0
  8  9  1  0  0  0  0
  8 41  1  0  0  0  0
  9 10  2  0  0  0  0
 11 13  1  0  0  0  0
 11 15  2  0  0  0  0
 11 16  2  0  0  0  0
 12 21  2  0  0  0  0
 12 22  1  0  0  0  0
 12 23  1  0  0  0  0
 13 14  1  0  0  0  0
 13 42  1  0  0  0  0
 14 17  1  0  0  0  0
 14 18  1  0  0  0  0
 14 43  1  1  0  0  0
 17 27  1  0  0  0  0
 17 44  1  0  0  0  0
 17 56  1  0  0  0  0
 18 19  2  0  0  0  0
 18 33  1  0  0  0  0
 20 30  1  0  0  0  0
 20 31  1  0  0  0  0
 20 45  1  0  0  0  0
 21 46  1  0  0  0  0
 21 57  1  0  0  0  0
 22 47  1  0  0  0  0
 22 58  1  0  0  0  0
 23 24  2  0  0  0  0
 23 28  1  0  0  0  0
 24 25  1  0  0  0  0
 24 48  1  0  0  0  0
 25 26  2  0  0  0  0
 25 49  1  0  0  0  0
 26 27  1  0  0  0  0
 26 50  1  0  0  0  0
 27 28  2  0  0  0  0
 28 51  1  0  0  0  0
 29 30  1  0  0  0  0
 29 33  1  0  0  0  0
 29 52  1  0  0  0  0
 29 59  1  0  0  0  0
 30 53  1  0  0  0  0
 30 60  1  0  0  0  0
 31 32  1  0  0  0  0
 31 54  1  0  0  0  0
 31 61  1  0  0  0  0
 32 33  1  0  0  0  0
 32 34  1  0  0  0  0
 32 55  1  0  0  0  0
M  CHG  1  21   1
M  END
>  <penalty_kcalmol>
3.05

>  <protonation_change>
protonated_in_solution

>  <protonation_site>
20

>  <protonation_pKa>
7.49

>  <protonation_pKa_method>
experiment

>  <experiment_pH>
7.8

>  <protonated_energy_kcalmol>
105.798904

>  <deprotonated_energy_kcalmol>
18.790879

>  <deltaG_kcalmol>
-9.43

>  <charge>
1

>  <lm5_entropy_jk>
21.763587254956963

>  <number_of_rotatable_bonds>
8

$$$$
