6t5w+2.pdb
 OpenBabel11252210453D

 54 56  0  0  1  0  0  0  0  0999 V2000
   -0.1420   20.8640   15.3990 N   0  3  0  0  0  0  0  0  0  0  0  0
    1.1740   20.8950   16.1890 C   0  0  2  0  0  0  0  0  0  0  0  0
   -0.3900   18.5920   19.8100 O   0  0  0  0  0  0  0  0  0  0  0  0
    2.3800   20.8630   15.2270 C   0  0  0  0  0  0  0  0  0  0  0  0
    1.8130   19.7930   18.3440 N   0  0  0  0  0  0  0  0  0  0  0  0
    0.8480   18.5520   16.7060 O   0  0  0  0  0  0  0  0  0  0  0  0
    2.4450   22.0430   14.2890 C   0  0  0  0  0  0  0  0  0  0  0  0
    0.6370   16.5740   19.4500 N   0  0  0  0  0  0  0  0  0  0  0  0
    3.0130   23.2530   14.7140 C   0  0  0  0  0  0  0  0  0  0  0  0
   -2.5830   14.3870   14.3120 N   0  0  0  0  0  0  0  0  0  0  0  0
    3.1620   24.3130   13.8130 C   0  0  0  0  0  0  0  0  0  0  0  0
   -1.6210   13.7290   16.4130 N   0  3  0  0  0  0  0  0  0  0  0  0
    2.7400   24.1730   12.4870 C   0  0  0  0  0  0  0  0  0  0  0  0
    2.1530   22.9750   12.0660 C   0  0  0  0  0  0  0  0  0  0  0  0
    2.0040   21.9130   12.9620 C   0  0  0  0  0  0  0  0  0  0  0  0
    1.2370   19.6520   17.1110 C   0  0  0  0  0  0  0  0  0  0  0  0
    1.9940   18.6260   19.2590 C   0  0  2  0  0  0  0  0  0  0  0  0
    0.6170   17.9660   19.5300 C   0  0  0  0  0  0  0  0  0  0  0  0
   -0.5730   15.7310   19.5020 C   0  0  0  0  0  0  0  0  0  0  0  0
   -1.0630   15.3670   18.1130 C   0  0  0  0  0  0  0  0  0  0  0  0
   -1.5700   16.3900   17.2500 C   0  0  0  0  0  0  0  0  0  0  0  0
   -2.0740   16.0660   16.0160 C   0  0  0  0  0  0  0  0  0  0  0  0
   -2.1270   14.7070   15.5640 C   0  0  0  0  0  0  0  0  0  0  0  0
   -1.0860   14.0660   17.6660 C   0  0  0  0  0  0  0  0  0  0  0  0
    2.6250   19.1910   20.5480 C   0  0  0  0  0  0  0  0  0  0  0  0
    2.8360   20.7030   20.3450 C   0  0  0  0  0  0  0  0  0  0  0  0
    2.2600   21.0800   18.9680 C   0  0  0  0  0  0  0  0  0  0  0  0
   -0.1380   21.6720   14.7030 H   0  0  0  0  0  0  0  0  0  0  0  0
   -0.9700   20.9840   16.0520 H   0  0  0  0  0  0  0  0  0  0  0  0
   -0.2400   19.9420   14.8690 H   0  0  0  0  0  0  0  0  0  0  0  0
    1.1710   21.8660   16.7680 H   0  0  0  0  0  0  0  0  0  0  0  0
    3.3150   20.8540   15.8580 H   0  0  0  0  0  0  0  0  0  0  0  0
    2.3680   19.9130   14.6390 H   0  0  0  0  0  0  0  0  0  0  0  0
    1.5240   16.0700   19.2950 H   0  0  0  0  0  0  0  0  0  0  0  0
    3.3360   23.3620   15.7530 H   0  0  0  0  0  0  0  0  0  0  0  0
   -3.0230   15.1640   13.7690 H   0  0  0  0  0  0  0  0  0  0  0  0
   -2.8510   13.4220   14.0190 H   0  0  0  0  0  0  0  0  0  0  0  0
    3.6090   25.2530   14.1590 H   0  0  0  0  0  0  0  0  0  0  0  0
    2.8620   25.0030   11.7790 H   0  0  0  0  0  0  0  0  0  0  0  0
    1.8000   22.8610   11.0340 H   0  0  0  0  0  0  0  0  0  0  0  0
    1.5540   20.9760   12.6280 H   0  0  0  0  0  0  0  0  0  0  0  0
    2.6960   17.9060   18.7600 H   0  0  0  0  0  0  0  0  0  0  0  0
   -0.3320   14.8030   20.1000 H   0  0  0  0  0  0  0  0  0  0  0  0
   -1.4060   16.2850   20.0280 H   0  0  0  0  0  0  0  0  0  0  0  0
    3.6050   18.6880   20.7320 H   0  0  0  0  0  0  0  0  0  0  0  0
    1.9560   19.0190   21.4240 H   0  0  0  0  0  0  0  0  0  0  0  0
    2.3170   21.2890   21.1440 H   0  0  0  0  0  0  0  0  0  0  0  0
    3.9230   20.9610   20.3840 H   0  0  0  0  0  0  0  0  0  0  0  0
    1.3850   21.7760   19.0720 H   0  0  0  0  0  0  0  0  0  0  0  0
    3.0420   21.5570   18.3190 H   0  0  0  0  0  0  0  0  0  0  0  0
   -2.4630   16.8590   15.3660 H   0  0  0  0  0  0  0  0  0  0  0  0
   -1.5690   17.4380   17.5780 H   0  0  0  0  0  0  0  0  0  0  0  0
   -0.6970   13.2150   18.2490 H   0  0  0  0  0  0  0  0  0  0  0  0
   -1.6680   12.7160   16.1600 H   0  0  0  0  0  0  0  0  0  0  0  0
  1  2  1  0  0  0  0
  1 28  1  0  0  0  0
  1 29  1  0  0  0  0
  1 30  1  0  0  0  0
  2  4  1  0  0  0  0
  2 16  1  0  0  0  0
  2 31  1  1  0  0  0
  3 18  2  0  0  0  0
  4  7  1  0  0  0  0
  4 32  1  0  0  0  0
  4 33  1  0  0  0  0
  5 16  1  0  0  0  0
  5 17  1  0  0  0  0
  5 27  1  0  0  0  0
  6 16  2  0  0  0  0
  7  9  2  0  0  0  0
  7 15  1  0  0  0  0
  8 18  1  0  0  0  0
  8 19  1  0  0  0  0
  8 34  1  0  0  0  0
  9 11  1  0  0  0  0
  9 35  1  0  0  0  0
 10 23  1  0  0  0  0
 10 36  1  0  0  0  0
 10 37  1  0  0  0  0
 11 13  2  0  0  0  0
 11 38  1  0  0  0  0
 12 23  2  0  0  0  0
 12 24  1  0  0  0  0
 12 54  1  0  0  0  0
 13 14  1  0  0  0  0
 13 39  1  0  0  0  0
 14 15  2  0  0  0  0
 14 40  1  0  0  0  0
 15 41  1  0  0  0  0
 17 18  1  0  0  0  0
 17 25  1  0  0  0  0
 17 42  1  6  0  0  0
 19 20  1  0  0  0  0
 19 43  1  0  0  0  0
 19 44  1  0  0  0  0
 20 21  1  0  0  0  0
 20 24  2  0  0  0  0
 21 22  2  0  0  0  0
 21 52  1  0  0  0  0
 22 23  1  0  0  0  0
 22 51  1  0  0  0  0
 24 53  1  0  0  0  0
 25 26  1  0  0  0  0
 25 45  1  0  0  0  0
 25 46  1  0  0  0  0
 26 27  1  0  0  0  0
 26 47  1  0  0  0  0
 26 48  1  0  0  0  0
 27 49  1  0  0  0  0
 27 50  1  0  0  0  0
M  CHG  2   1   1  12   1
M  END
>  <number_of_rotatable_bonds>
8

>  <lm5_entropy_jk>
24.380619327158232

>  <protonation_change>
deprotonated_in_solution

>  <protonation_site>
54

>  <protonation_pKa>
6.3

>  <protonation_pKa_method>
experiment

>  <experiment_pH>
7.8

>  <protonated_energy_kcalmol>
126.798999

>  <deprotonated_energy_kcalmol>
33.623896

>  <deltaG_kcalmol>
-5.96

>  <charge>
2

$$$$
