6SY3
 OpenBabel11252210453D

 62 65  0  0  1  0  0  0  0  0999 V2000
   -0.9670   20.6860   15.5070 N   0  3  0  0  0  0  0  0  0  0  0  0
    0.0740   20.8750   16.6420 C   0  0  1  0  0  0  0  0  0  0  0  0
   -1.8820   17.4400   18.9700 O   0  0  0  0  0  0  0  0  0  0  0  0
    0.3180   19.5350   17.3410 C   0  0  0  0  0  0  0  0  0  0  0  0
    0.2000   19.5050   18.7280 N   0  0  0  0  0  0  0  0  0  0  0  0
    0.5600   18.5320   16.6890 O   0  0  0  0  0  0  0  0  0  0  0  0
    0.3620   18.2460   19.4870 C   0  0  2  0  0  0  0  0  0  0  0  0
   -0.2140   15.9000   18.9250 N   0  0  0  0  0  0  0  0  0  0  0  0
   -0.6920   17.1870   19.0780 C   0  0  0  0  0  0  0  0  0  0  0  0
   -2.1890   13.5450   14.6880 N   0  3  0  0  0  0  0  0  0  0  0  0
   -1.1030   14.7150   18.7330 C   0  0  0  0  0  0  0  0  0  0  0  0
   -1.3750   14.3580   17.2780 C   0  0  0  0  0  0  0  0  0  0  0  0
   -2.0550   15.2400   16.4330 C   0  0  0  0  0  0  0  0  0  0  0  0
   -2.4180   14.8500   15.1300 C   0  0  0  0  0  0  0  0  0  0  0  0
   -1.4130   12.7040   15.4840 C   0  0  0  0  0  0  0  0  0  0  0  0
   -1.0190   13.1050   16.7740 C   0  0  0  0  0  0  0  0  0  0  0  0
    0.2670   18.6500   20.9830 C   0  0  0  0  0  0  0  0  0  0  0  0
    0.6010   20.1570   21.0090 C   0  0  0  0  0  0  0  0  0  0  0  0
    0.1040   20.6660   19.6460 C   0  0  0  0  0  0  0  0  0  0  0  0
    1.4190   21.5000   16.1330 C   0  0  0  0  0  0  0  0  0  0  0  0
    2.2820   21.9610   17.3160 C   0  0  0  0  0  0  0  0  0  0  0  0
    2.2990   23.3010   17.7530 C   0  0  0  0  0  0  0  0  0  0  0  0
    3.0380   23.6770   18.8890 C   0  0  0  0  0  0  0  0  0  0  0  0
    3.7620   22.7140   19.6060 C   0  0  0  0  0  0  0  0  0  0  0  0
    3.7550   21.3770   19.1810 C   0  0  0  0  0  0  0  0  0  0  0  0
    3.0290   21.0090   18.0360 C   0  0  0  0  0  0  0  0  0  0  0  0
    1.1870   22.5940   15.0800 C   0  0  0  0  0  0  0  0  0  0  0  0
    1.9910   22.6270   13.9250 C   0  0  0  0  0  0  0  0  0  0  0  0
    1.7730   23.5920   12.9270 C   0  0  0  0  0  0  0  0  0  0  0  0
    0.7450   24.5360   13.0770 C   0  0  0  0  0  0  0  0  0  0  0  0
   -0.0580   24.5210   14.2280 C   0  0  0  0  0  0  0  0  0  0  0  0
    0.1620   23.5540   15.2240 C   0  0  0  0  0  0  0  0  0  0  0  0
   -1.0380   21.5310   14.9160 H   0  0  0  0  0  0  0  0  0  0  0  0
   -1.9150   20.4710   15.8610 H   0  0  0  0  0  0  0  0  0  0  0  0
   -0.6970   19.8970   14.8880 H   0  0  0  0  0  0  0  0  0  0  0  0
   -0.3510   21.5310   17.4080 H   0  0  0  0  0  0  0  0  0  0  0  0
    1.3530   17.8310   19.2550 H   0  0  0  0  0  0  0  0  0  0  0  0
    0.7890   15.7680   19.0630 H   0  0  0  0  0  0  0  0  0  0  0  0
   -0.6940   13.8440   19.2620 H   0  0  0  0  0  0  0  0  0  0  0  0
   -2.0730   14.9170   19.2110 H   0  0  0  0  0  0  0  0  0  0  0  0
    0.9280   18.0480   21.6190 H   0  0  0  0  0  0  0  0  0  0  0  0
   -0.7650   18.4930   21.3360 H   0  0  0  0  0  0  0  0  0  0  0  0
    0.1380   20.7010   21.8490 H   0  0  0  0  0  0  0  0  0  0  0  0
    1.6900   20.3150   21.0830 H   0  0  0  0  0  0  0  0  0  0  0  0
   -0.9460   20.9960   19.7200 H   0  0  0  0  0  0  0  0  0  0  0  0
    0.7170   21.5180   19.3110 H   0  0  0  0  0  0  0  0  0  0  0  0
    1.9810   20.6950   15.6310 H   0  0  0  0  0  0  0  0  0  0  0  0
    1.7390   24.0650   17.2190 H   0  0  0  0  0  0  0  0  0  0  0  0
    3.0430   24.7190   19.2160 H   0  0  0  0  0  0  0  0  0  0  0  0
    4.3300   23.0040   20.4920 H   0  0  0  0  0  0  0  0  0  0  0  0
    4.3140   20.6260   19.7390 H   0  0  0  0  0  0  0  0  0  0  0  0
    3.0300   19.9670   17.7220 H   0  0  0  0  0  0  0  0  0  0  0  0
    2.7960   21.9030   13.7970 H   0  0  0  0  0  0  0  0  0  0  0  0
    2.4040   23.6100   12.0360 H   0  0  0  0  0  0  0  0  0  0  0  0
    0.5770   25.2890   12.3040 H   0  0  0  0  0  0  0  0  0  0  0  0
   -0.8460   25.2670   14.3520 H   0  0  0  0  0  0  0  0  0  0  0  0
   -0.4500   23.5770   16.1260 H   0  0  0  0  0  0  0  0  0  0  0  0
   -1.2260   11.6910   15.1220 H   0  0  0  0  0  0  0  0  0  0  0  0
   -0.4630   12.4080   17.3910 H   0  0  0  0  0  0  0  0  0  0  0  0
   -2.3070   16.2380   16.7880 H   0  0  0  0  0  0  0  0  0  0  0  0
   -2.9400   15.5280   14.4570 H   0  0  0  0  0  0  0  0  0  0  0  0
   -2.6890   13.1650   13.8760 H   0  0  0  0  0  0  0  0  0  0  0  0
  1  2  1  0  0  0  0
  1 33  1  0  0  0  0
  1 34  1  0  0  0  0
  1 35  1  0  0  0  0
  2  4  1  0  0  0  0
  2 20  1  0  0  0  0
  2 36  1  1  0  0  0
  3  9  2  0  0  0  0
  4  5  1  0  0  0  0
  4  6  2  0  0  0  0
  5  7  1  0  0  0  0
  5 19  1  0  0  0  0
  7  9  1  0  0  0  0
  7 17  1  0  0  0  0
  7 37  1  6  0  0  0
  8  9  1  0  0  0  0
  8 11  1  0  0  0  0
  8 38  1  0  0  0  0
 10 14  2  0  0  0  0
 10 15  1  0  0  0  0
 10 62  1  0  0  0  0
 11 12  1  0  0  0  0
 11 39  1  0  0  0  0
 11 40  1  0  0  0  0
 12 13  2  0  0  0  0
 12 16  1  0  0  0  0
 13 14  1  0  0  0  0
 13 60  1  0  0  0  0
 14 61  1  0  0  0  0
 15 16  2  0  0  0  0
 15 58  1  0  0  0  0
 16 59  1  0  0  0  0
 17 18  1  0  0  0  0
 17 41  1  0  0  0  0
 17 42  1  0  0  0  0
 18 19  1  0  0  0  0
 18 43  1  0  0  0  0
 18 44  1  0  0  0  0
 19 45  1  0  0  0  0
 19 46  1  0  0  0  0
 20 21  1  0  0  0  0
 20 27  1  0  0  0  0
 20 47  1  0  0  0  0
 21 22  2  0  0  0  0
 21 26  1  0  0  0  0
 22 23  1  0  0  0  0
 22 48  1  0  0  0  0
 23 24  2  0  0  0  0
 23 49  1  0  0  0  0
 24 25  1  0  0  0  0
 24 50  1  0  0  0  0
 25 26  2  0  0  0  0
 25 51  1  0  0  0  0
 26 52  1  0  0  0  0
 27 28  2  0  0  0  0
 27 32  1  0  0  0  0
 28 29  1  0  0  0  0
 28 53  1  0  0  0  0
 29 30  2  0  0  0  0
 29 54  1  0  0  0  0
 30 31  1  0  0  0  0
 30 55  1  0  0  0  0
 31 32  2  0  0  0  0
 31 56  1  0  0  0  0
 32 57  1  0  0  0  0
M  CHG  2   1   1  10   1
M  END
>  <number_of_rotatable_bonds>
9

>  <lm5_entropy_jk>
25.430252392296193

>  <protonation_change>
deprotonated_in_solution

>  <protonation_site>
62

>  <protonation_pKa>
5.0

>  <protonation_pKa_method>
experiment

>  <experiment_pH>
7.8

>  <protonated_energy_kcalmol>
155.549498

>  <deprotonated_energy_kcalmol>
62.445419

>  <deltaG_kcalmol>
-4.26

>  <charge>
2

$$$$
