1K1L
 OpenBabel11252210453D

 61 64  0  0  1  0  0  0  0  0999 V2000
    0.6980   21.6910   16.9530 C   0  0  0  0  0  0  0  0  0  0  0  0
    0.1530   21.1450   15.7670 C   0  0  0  0  0  0  0  0  0  0  0  0
    0.9970   20.8420   14.6760 C   0  0  0  0  0  0  0  0  0  0  0  0
    2.3790   21.0560   14.7920 C   0  0  0  0  0  0  0  0  0  0  0  0
    4.3090   21.8130   16.0610 C   0  0  0  0  0  0  0  0  0  0  0  0
    4.8600   22.3750   17.2250 C   0  0  0  0  0  0  0  0  0  0  0  0
    4.0210   22.7120   18.3000 C   0  0  0  0  0  0  0  0  0  0  0  0
    2.6360   22.4860   18.2150 C   0  0  0  0  0  0  0  0  0  0  0  0
    2.0840   21.9190   17.0480 C   0  0  0  0  0  0  0  0  0  0  0  0
    2.9260   21.5880   15.9690 C   0  0  0  0  0  0  0  0  0  0  0  0
   -1.6150   20.9400   15.6250 S   0  0  0  0  0  0  0  0  0  0  0  0
   -2.1240   13.7440   15.1180 C   0  0  0  0  0  0  0  0  0  0  0  0
   -1.9520   19.4090   16.1590 N   0  0  0  0  0  0  0  0  0  0  0  0
   -1.6990   19.0300   17.5890 C   0  0  1  0  0  0  0  0  0  0  0  0
   -2.0210   20.8960   14.2150 O   0  0  0  0  0  0  0  0  0  0  0  0
   -2.2830   21.8280   16.5900 O   0  0  0  0  0  0  0  0  0  0  0  0
   -2.7250   17.9140   17.9600 C   0  0  0  0  0  0  0  0  0  0  0  0
   -0.2250   18.5970   17.8720 C   0  0  0  0  0  0  0  0  0  0  0  0
    0.4850   18.2390   16.9440 O   0  0  0  0  0  0  0  0  0  0  0  0
    1.7430   19.9010   21.2660 N   0  0  0  0  0  0  0  0  0  0  0  0
   -1.7240   12.4470   14.9530 N   0  3  0  0  0  0  0  0  0  0  0  0
   -2.6940   14.3750   14.0540 N   0  0  0  0  0  0  0  0  0  0  0  0
   -1.9470   14.4610   16.4270 C   0  0  0  0  0  0  0  0  0  0  0  0
   -1.4210   13.7990   17.5640 C   0  0  0  0  0  0  0  0  0  0  0  0
   -1.2450   14.4820   18.7780 C   0  0  0  0  0  0  0  0  0  0  0  0
   -1.6340   15.8210   18.8960 C   0  0  0  0  0  0  0  0  0  0  0  0
   -2.2040   16.4870   17.8040 C   0  0  0  0  0  0  0  0  0  0  0  0
   -2.3290   15.8210   16.5780 C   0  0  0  0  0  0  0  0  0  0  0  0
   -0.4540   19.1690   20.4000 C   0  0  0  0  0  0  0  0  0  0  0  0
    0.3820   20.3640   20.9220 C   0  0  0  0  0  0  0  0  0  0  0  0
    2.4220   19.2640   20.1140 C   0  0  0  0  0  0  0  0  0  0  0  0
    1.5700   18.0980   19.5600 C   0  0  0  0  0  0  0  0  0  0  0  0
    0.2130   18.5650   19.2110 N   0  0  0  0  0  0  0  0  0  0  0  0
    1.4940   17.2790   20.2880 H   0  0  0  0  0  0  0  0  0  0  0  0
    0.0630   21.9660   17.8010 H   0  0  0  0  0  0  0  0  0  0  0  0
    0.6010   20.4610   13.7300 H   0  0  0  0  0  0  0  0  0  0  0  0
    3.0320   20.8230   13.9540 H   0  0  0  0  0  0  0  0  0  0  0  0
    4.9570   21.5560   15.2250 H   0  0  0  0  0  0  0  0  0  0  0  0
    5.9350   22.5540   17.2950 H   0  0  0  0  0  0  0  0  0  0  0  0
    4.4450   23.1510   19.2040 H   0  0  0  0  0  0  0  0  0  0  0  0
    1.9970   22.7480   19.0590 H   0  0  0  0  0  0  0  0  0  0  0  0
   -1.1980   19.0140   15.5900 H   0  0  0  0  0  0  0  0  0  0  0  0
   -1.8850   19.9020   18.2390 H   0  0  0  0  0  0  0  0  0  0  0  0
   -3.6360   18.0490   17.3590 H   0  0  0  0  0  0  0  0  0  0  0  0
    1.6710   19.2280   22.0330 H   0  0  0  0  0  0  0  0  0  0  0  0
   -1.3770   11.9270   15.7560 H   0  0  0  0  0  0  0  0  0  0  0  0
   -3.1350   13.7560   13.3690 H   0  0  0  0  0  0  0  0  0  0  0  0
   -1.1350   12.7540   17.5280 H   0  0  0  0  0  0  0  0  0  0  0  0
   -0.8150   13.9800   19.6460 H   0  0  0  0  0  0  0  0  0  0  0  0
   -1.4780   16.3400   19.8390 H   0  0  0  0  0  0  0  0  0  0  0  0
   -2.7250   16.4020   15.7540 H   0  0  0  0  0  0  0  0  0  0  0  0
   -1.4840   19.4850   20.1970 H   0  0  0  0  0  0  0  0  0  0  0  0
    0.4300   21.1440   20.1510 H   0  0  0  0  0  0  0  0  0  0  0  0
    3.4170   18.8950   20.4010 H   0  0  0  0  0  0  0  0  0  0  0  0
    2.0560   17.6750   18.6730 H   0  0  0  0  0  0  0  0  0  0  0  0
   -3.0560   18.0550   18.9940 H   0  0  0  0  0  0  0  0  0  0  0  0
   -2.2040   11.8940   14.2430 H   0  0  0  0  0  0  0  0  0  0  0  0
   -3.1400   15.2760   14.1960 H   0  0  0  0  0  0  0  0  0  0  0  0
   -0.5110   18.4090   21.1960 H   0  0  0  0  0  0  0  0  0  0  0  0
   -0.1050   20.8100   21.8040 H   0  0  0  0  0  0  0  0  0  0  0  0
    2.5710   19.9930   19.3050 H   0  0  0  0  0  0  0  0  0  0  0  0
  1  2  2  0  0  0  0
  1  9  1  0  0  0  0
  1 35  1  0  0  0  0
  2  3  1  0  0  0  0
  2 11  1  0  0  0  0
  3  4  2  0  0  0  0
  3 36  1  0  0  0  0
  4 10  1  0  0  0  0
  4 37  1  0  0  0  0
  5  6  2  0  0  0  0
  5 10  1  0  0  0  0
  5 38  1  0  0  0  0
  6  7  1  0  0  0  0
  6 39  1  0  0  0  0
  7  8  2  0  0  0  0
  7 40  1  0  0  0  0
  8  9  1  0  0  0  0
  8 41  1  0  0  0  0
  9 10  2  0  0  0  0
 11 13  1  0  0  0  0
 11 15  2  0  0  0  0
 11 16  2  0  0  0  0
 12 21  2  0  0  0  0
 12 22  1  0  0  0  0
 12 23  1  0  0  0  0
 13 14  1  0  0  0  0
 13 42  1  0  0  0  0
 14 17  1  0  0  0  0
 14 18  1  0  0  0  0
 14 43  1  1  0  0  0
 17 27  1  0  0  0  0
 17 44  1  0  0  0  0
 17 56  1  0  0  0  0
 18 19  2  0  0  0  0
 18 33  1  0  0  0  0
 20 30  1  0  0  0  0
 20 31  1  0  0  0  0
 20 45  1  0  0  0  0
 21 46  1  0  0  0  0
 21 57  1  0  0  0  0
 22 47  1  0  0  0  0
 22 58  1  0  0  0  0
 23 24  2  0  0  0  0
 23 28  1  0  0  0  0
 24 25  1  0  0  0  0
 24 48  1  0  0  0  0
 25 26  2  0  0  0  0
 25 49  1  0  0  0  0
 26 27  1  0  0  0  0
 26 50  1  0  0  0  0
 27 28  2  0  0  0  0
 28 51  1  0  0  0  0
 29 30  1  0  0  0  0
 29 33  1  0  0  0  0
 29 52  1  0  0  0  0
 29 59  1  0  0  0  0
 30 53  1  0  0  0  0
 30 60  1  0  0  0  0
 31 32  1  0  0  0  0
 31 54  1  0  0  0  0
 31 61  1  0  0  0  0
 32 33  1  0  0  0  0
 32 34  1  0  0  0  0
 32 55  1  0  0  0  0
M  CHG  1  21   1
M  END
>  <penalty_kcalmol>
3.05

>  <protonation_change>
protonated_in_solution

>  <protonation_site>
20

>  <protonation_pKa>
7.49

>  <protonation_pKa_method>
experiment

>  <experiment_pH>
7.8

>  <protonated_energy_kcalmol>
105.798904

>  <deprotonated_energy_kcalmol>
18.790879

>  <deltaG_kcalmol>
-9.43

>  <charge>
1

>  <lm5_entropy_jk>
21.763587254956963

>  <number_of_rotatable_bonds>
8

$$$$
