1K1L
 OpenBabel11252210453D

 61 64  0  0  1  0  0  0  0  0999 V2000
    0.6790   21.8490   16.7570 C   0  0  0  0  0  0  0  0  0  0  0  0
    0.1620   21.1670   15.6290 C   0  0  0  0  0  0  0  0  0  0  0  0
    1.0360   20.6830   14.6310 C   0  0  0  0  0  0  0  0  0  0  0  0
    2.4190   20.8680   14.7790 C   0  0  0  0  0  0  0  0  0  0  0  0
    4.3230   21.7360   16.0130 C   0  0  0  0  0  0  0  0  0  0  0  0
    4.8490   22.4340   17.1140 C   0  0  0  0  0  0  0  0  0  0  0  0
    3.9820   22.9350   18.0990 C   0  0  0  0  0  0  0  0  0  0  0  0
    2.5940   22.7440   17.9850 C   0  0  0  0  0  0  0  0  0  0  0  0
    2.0670   22.0390   16.8830 C   0  0  0  0  0  0  0  0  0  0  0  0
    2.9380   21.5390   15.8950 C   0  0  0  0  0  0  0  0  0  0  0  0
   -1.6050   21.0100   15.4310 S   0  0  0  0  0  0  0  0  0  0  0  0
   -1.9630   13.8550   15.0400 C   0  0  0  0  0  0  0  0  0  0  0  0
   -1.9880   19.5160   16.0320 N   0  0  0  0  0  0  0  0  0  0  0  0
   -1.6130   19.1300   17.4320 C   0  0  1  0  0  0  0  0  0  0  0  0
   -1.9520   20.8870   14.0110 O   0  0  0  0  0  0  0  0  0  0  0  0
   -2.2950   21.9610   16.3150 O   0  0  0  0  0  0  0  0  0  0  0  0
   -2.6320   18.0320   17.8760 C   0  0  0  0  0  0  0  0  0  0  0  0
   -0.1160   18.6880   17.6160 C   0  0  0  0  0  0  0  0  0  0  0  0
    0.5110   18.2340   16.6690 O   0  0  0  0  0  0  0  0  0  0  0  0
    1.9420   19.9380   21.1380 N   0  0  0  0  0  0  0  0  0  0  0  0
   -1.6770   12.5200   14.9660 N   0  3  0  0  0  0  0  0  0  0  0  0
   -2.5320   14.4580   13.9520 N   0  0  0  0  0  0  0  0  0  0  0  0
   -1.8040   14.5910   16.3390 C   0  0  0  0  0  0  0  0  0  0  0  0
   -1.2390   13.9480   17.4690 C   0  0  0  0  0  0  0  0  0  0  0  0
   -1.1260   14.6170   18.6970 C   0  0  0  0  0  0  0  0  0  0  0  0
   -1.5740   15.9370   18.8210 C   0  0  0  0  0  0  0  0  0  0  0  0
   -2.1270   16.6010   17.7210 C   0  0  0  0  0  0  0  0  0  0  0  0
   -2.2260   15.9380   16.4890 C   0  0  0  0  0  0  0  0  0  0  0  0
   -0.2130   19.2530   20.1530 C   0  0  0  0  0  0  0  0  0  0  0  0
    0.5700   20.3950   20.8450 C   0  0  0  0  0  0  0  0  0  0  0  0
    2.6570   19.5830   19.8980 C   0  0  0  0  0  0  0  0  0  0  0  0
    1.8960   18.4800   19.1210 C   0  0  0  0  0  0  0  0  0  0  0  0
    0.4700   18.8320   18.8930 N   0  0  0  0  0  0  0  0  0  0  0  0
    1.9510   17.5240   19.6590 H   0  0  0  0  0  0  0  0  0  0  0  0
    0.0230   22.2570   17.5310 H   0  0  0  0  0  0  0  0  0  0  0  0
    0.6600   20.1840   13.7330 H   0  0  0  0  0  0  0  0  0  0  0  0
    3.0970   20.5070   14.0080 H   0  0  0  0  0  0  0  0  0  0  0  0
    4.9940   21.3520   15.2460 H   0  0  0  0  0  0  0  0  0  0  0  0
    5.9250   22.5910   17.2040 H   0  0  0  0  0  0  0  0  0  0  0  0
    4.3880   23.4780   18.9550 H   0  0  0  0  0  0  0  0  0  0  0  0
    1.9310   23.1420   18.7540 H   0  0  0  0  0  0  0  0  0  0  0  0
   -1.3730   19.0390   15.3690 H   0  0  0  0  0  0  0  0  0  0  0  0
   -1.7420   20.0070   18.0880 H   0  0  0  0  0  0  0  0  0  0  0  0
   -3.5690   18.1590   17.3140 H   0  0  0  0  0  0  0  0  0  0  0  0
    1.9080   19.1200   21.7490 H   0  0  0  0  0  0  0  0  0  0  0  0
   -1.4890   12.0190   15.8280 H   0  0  0  0  0  0  0  0  0  0  0  0
   -3.0130   13.8270   13.3060 H   0  0  0  0  0  0  0  0  0  0  0  0
   -0.8710   12.9270   17.4190 H   0  0  0  0  0  0  0  0  0  0  0  0
   -0.6870   14.1170   19.5590 H   0  0  0  0  0  0  0  0  0  0  0  0
   -1.4710   16.4520   19.7720 H   0  0  0  0  0  0  0  0  0  0  0  0
   -2.6300   16.5090   15.6610 H   0  0  0  0  0  0  0  0  0  0  0  0
   -1.2500   19.5710   19.9910 H   0  0  0  0  0  0  0  0  0  0  0  0
    0.5970   21.2730   20.1820 H   0  0  0  0  0  0  0  0  0  0  0  0
    3.6800   19.2470   20.1230 H   0  0  0  0  0  0  0  0  0  0  0  0
    2.3910   18.3320   18.1530 H   0  0  0  0  0  0  0  0  0  0  0  0
   -2.9260   18.2010   18.9190 H   0  0  0  0  0  0  0  0  0  0  0  0
   -2.1530   11.9750   14.2460 H   0  0  0  0  0  0  0  0  0  0  0  0
   -2.9420   15.3820   14.0590 H   0  0  0  0  0  0  0  0  0  0  0  0
   -0.2550   18.3890   20.8310 H   0  0  0  0  0  0  0  0  0  0  0  0
    0.0570   20.7140   21.7670 H   0  0  0  0  0  0  0  0  0  0  0  0
    2.7500   20.4630   19.2460 H   0  0  0  0  0  0  0  0  0  0  0  0
  1  2  2  0  0  0  0
  1  9  1  0  0  0  0
  1 35  1  0  0  0  0
  2  3  1  0  0  0  0
  2 11  1  0  0  0  0
  3  4  2  0  0  0  0
  3 36  1  0  0  0  0
  4 10  1  0  0  0  0
  4 37  1  0  0  0  0
  5  6  2  0  0  0  0
  5 10  1  0  0  0  0
  5 38  1  0  0  0  0
  6  7  1  0  0  0  0
  6 39  1  0  0  0  0
  7  8  2  0  0  0  0
  7 40  1  0  0  0  0
  8  9  1  0  0  0  0
  8 41  1  0  0  0  0
  9 10  2  0  0  0  0
 11 13  1  0  0  0  0
 11 15  2  0  0  0  0
 11 16  2  0  0  0  0
 12 21  2  0  0  0  0
 12 22  1  0  0  0  0
 12 23  1  0  0  0  0
 13 14  1  0  0  0  0
 13 42  1  0  0  0  0
 14 17  1  0  0  0  0
 14 18  1  0  0  0  0
 14 43  1  1  0  0  0
 17 27  1  0  0  0  0
 17 44  1  0  0  0  0
 17 56  1  0  0  0  0
 18 19  2  0  0  0  0
 18 33  1  0  0  0  0
 20 30  1  0  0  0  0
 20 31  1  0  0  0  0
 20 45  1  0  0  0  0
 21 46  1  0  0  0  0
 21 57  1  0  0  0  0
 22 47  1  0  0  0  0
 22 58  1  0  0  0  0
 23 24  2  0  0  0  0
 23 28  1  0  0  0  0
 24 25  1  0  0  0  0
 24 48  1  0  0  0  0
 25 26  2  0  0  0  0
 25 49  1  0  0  0  0
 26 27  1  0  0  0  0
 26 50  1  0  0  0  0
 27 28  2  0  0  0  0
 28 51  1  0  0  0  0
 29 30  1  0  0  0  0
 29 33  1  0  0  0  0
 29 52  1  0  0  0  0
 29 59  1  0  0  0  0
 30 53  1  0  0  0  0
 30 60  1  0  0  0  0
 31 32  1  0  0  0  0
 31 54  1  0  0  0  0
 31 61  1  0  0  0  0
 32 33  1  0  0  0  0
 32 34  1  0  0  0  0
 32 55  1  0  0  0  0
M  CHG  1  21   1
M  END
>  <penalty_kcalmol>
3.05

>  <protonation_change>
protonated_in_solution

>  <protonation_site>
20

>  <protonation_pKa>
7.49

>  <protonation_pKa_method>
experiment

>  <experiment_pH>
7.8

>  <protonated_energy_kcalmol>
105.798904

>  <deprotonated_energy_kcalmol>
18.790879

>  <deltaG_kcalmol>
-9.43

>  <charge>
1

>  <lm5_entropy_jk>
21.763587254956963

>  <number_of_rotatable_bonds>
8

$$$$
