5HVP
 OpenBabel11252210453D

102101  0  0  1  0  0  0  0  0999 V2000
    7.0480   -8.7250   19.2090 N   0  0  0  0  0  0  0  0  0  0  0  0
    7.1360   -5.8110   16.8710 N   0  0  0  0  0  0  0  0  0  0  0  0
    6.2600   -2.4840   16.0730 N   0  0  0  0  0  0  0  0  0  0  0  0
    4.4660    1.3670   13.0600 N   0  0  0  0  0  0  0  0  0  0  0  0
    4.5160    3.3160   10.8020 N   0  0  0  0  0  0  0  0  0  0  0  0
    6.4980   -7.8650   18.0990 C   0  0  2  0  0  0  0  0  0  0  0  0
    7.6920   -4.4410   16.6190 C   0  0  2  0  0  0  0  0  0  0  0  0
    4.9730   -1.9450   15.5800 C   0  0  1  0  0  0  0  0  0  0  0  0
    3.4120    1.5140   12.0350 C   0  0  2  0  0  0  0  0  0  0  0  0
    4.7660    4.5780   10.1050 C   0  0  1  0  0  0  0  0  0  0  0  0
    7.6630   -9.9190   19.0020 C   0  0  0  0  0  0  0  0  0  0  0  0
    7.1350   -6.4490   18.0970 C   0  0  0  0  0  0  0  0  0  0  0  0
    6.8140   -3.6580   15.6030 C   0  0  0  0  0  0  0  0  0  0  0  0
    5.2950    0.2940   13.1880 C   0  0  0  0  0  0  0  0  0  0  0  0
    3.3810    2.9780   11.4930 C   0  0  0  0  0  0  0  0  0  0  0  0
    2.2490    4.4360    7.1140 C   0  0  0  0  0  0  0  0  0  0  0  0
    7.8540  -10.4000   17.9060 O   0  0  0  0  0  0  0  0  0  0  0  0
    7.5990   -5.9280   19.0990 O   0  0  0  0  0  0  0  0  0  0  0  0
    6.5770   -4.0660   14.4760 O   0  0  0  0  0  0  0  0  0  0  0  0
    5.4450   -0.5450   12.3250 O   0  0  0  0  0  0  0  0  0  0  0  0
    2.4610    3.7630   11.6780 O   0  0  0  0  0  0  0  0  0  0  0  0
    1.6930    3.5420    6.5190 O   0  0  0  0  0  0  0  0  0  0  0  0
    4.9310   -7.7870   18.0920 C   0  0  0  0  0  0  0  0  0  0  0  0
    9.1790   -4.5290   16.1680 C   0  0  0  0  0  0  0  0  0  0  0  0
    3.8270   -2.4830   16.4690 C   0  0  0  0  0  0  0  0  0  0  0  0
    2.0740    0.9900   12.6300 C   0  0  0  0  0  0  0  0  0  0  0  0
    6.2940    4.8710   10.1240 C   0  0  0  0  0  0  0  0  0  0  0  0
    3.6800   -4.0070   16.4690 C   0  0  0  0  0  0  0  0  0  0  0  0
    6.9360    5.0410   11.5140 C   0  0  0  0  0  0  0  0  0  0  0  0
    4.3740   -7.7000   16.6620 C   0  0  0  0  0  0  0  0  0  0  0  0
    9.7420   -3.1530   15.8140 C   0  0  0  0  0  0  0  0  0  0  0  0
    4.2590   -9.0230   18.7130 C   0  0  0  0  0  0  0  0  0  0  0  0
   10.0850   -5.0910   17.2770 C   0  0  0  0  0  0  0  0  0  0  0  0
    2.7510   -4.3970   17.5910 C   0  0  0  0  0  0  0  0  0  0  0  0
    7.1890    3.6880   12.1790 C   0  0  0  0  0  0  0  0  0  0  0  0
    3.0880   -4.4950   15.1490 C   0  0  0  0  0  0  0  0  0  0  0  0
    8.3010    5.6960   11.3310 C   0  0  0  0  0  0  0  0  0  0  0  0
    4.9490   -0.3810   15.5330 C   0  0  1  0  0  0  0  0  0  0  0  0
    4.2450    4.5300    8.6250 C   0  0  1  0  0  0  0  0  0  0  0  0
    8.1120  -10.5940   20.2260 C   0  0  0  0  0  0  0  0  0  0  0  0
    5.2660    0.1830   16.7910 O   0  0  0  0  0  0  0  0  0  0  0  0
    4.8300    3.4370    7.9260 O   0  0  0  0  0  0  0  0  0  0  0  0
    5.9410    0.1900   14.5150 C   0  0  0  0  0  0  0  0  0  0  0  0
    2.7320    4.3260    8.5140 C   0  0  0  0  0  0  0  0  0  0  0  0
    2.2050    5.6800    6.6610 O   0  0  0  0  0  0  0  0  0  0  0  0
    4.0030   -2.1400   17.4930 H   0  0  0  0  0  0  0  0  0  0  0  0
    6.9440   -8.4440   20.1800 H   0  0  0  0  0  0  0  0  0  0  0  0
    6.7770   -6.3500   16.0860 H   0  0  0  0  0  0  0  0  0  0  0  0
    6.8340    4.1000    9.5610 H   0  0  0  0  0  0  0  0  0  0  0  0
    4.5340    2.0610   13.8040 H   0  0  0  0  0  0  0  0  0  0  0  0
    6.5160   -2.2030   17.0100 H   0  0  0  0  0  0  0  0  0  0  0  0
    6.8060   -8.3030   17.1410 H   0  0  0  0  0  0  0  0  0  0  0  0
    5.2780    2.6560   10.8460 H   0  0  0  0  0  0  0  0  0  0  0  0
    7.6400   -3.8630   17.5460 H   0  0  0  0  0  0  0  0  0  0  0  0
    4.6450   -4.4980   16.6630 H   0  0  0  0  0  0  0  0  0  0  0  0
    3.6800    0.9090   11.1510 H   0  0  0  0  0  0  0  0  0  0  0  0
    4.7980   -2.3040   14.5560 H   0  0  0  0  0  0  0  0  0  0  0  0
    4.6280   -6.8900   18.6630 H   0  0  0  0  0  0  0  0  0  0  0  0
    4.2430    5.3920   10.6350 H   0  0  0  0  0  0  0  0  0  0  0  0
    9.2270   -5.1820   15.2770 H   0  0  0  0  0  0  0  0  0  0  0  0
    6.2970    5.6750   12.1550 H   0  0  0  0  0  0  0  0  0  0  0  0
    1.7580    1.5920   13.4860 H   0  0  0  0  0  0  0  0  0  0  0  0
    2.8750   -2.0260   16.1810 H   0  0  0  0  0  0  0  0  0  0  0  0
    1.2690    1.0440   11.8840 H   0  0  0  0  0  0  0  0  0  0  0  0
    2.6680   -5.4870   17.6460 H   0  0  0  0  0  0  0  0  0  0  0  0
    2.1560   -0.0560   12.9510 H   0  0  0  0  0  0  0  0  0  0  0  0
    3.1590   -4.0630   18.5520 H   0  0  0  0  0  0  0  0  0  0  0  0
    6.4590    5.7960    9.5590 H   0  0  0  0  0  0  0  0  0  0  0  0
    3.2800   -7.6330   16.6650 H   0  0  0  0  0  0  0  0  0  0  0  0
    7.9340    3.7630   12.9750 H   0  0  0  0  0  0  0  0  0  0  0  0
    4.7460   -6.8140   16.1360 H   0  0  0  0  0  0  0  0  0  0  0  0
    6.2770    3.3210   12.6570 H   0  0  0  0  0  0  0  0  0  0  0  0
    4.6510   -8.5810   16.0720 H   0  0  0  0  0  0  0  0  0  0  0  0
    7.5450    2.9380   11.4630 H   0  0  0  0  0  0  0  0  0  0  0  0
   10.7990   -3.2120   15.5350 H   0  0  0  0  0  0  0  0  0  0  0  0
    2.2030   -3.9170   14.8610 H   0  0  0  0  0  0  0  0  0  0  0  0
    9.2130   -2.7210   14.9560 H   0  0  0  0  0  0  0  0  0  0  0  0
    3.8280   -4.4070   14.3450 H   0  0  0  0  0  0  0  0  0  0  0  0
    9.6530   -2.4530   16.6540 H   0  0  0  0  0  0  0  0  0  0  0  0
    2.7910   -5.5480   15.2130 H   0  0  0  0  0  0  0  0  0  0  0  0
    3.1670   -8.9860   18.6100 H   0  0  0  0  0  0  0  0  0  0  0  0
    8.9640    5.0630   10.7290 H   0  0  0  0  0  0  0  0  0  0  0  0
    4.6140   -9.9480   18.2420 H   0  0  0  0  0  0  0  0  0  0  0  0
    8.2170    6.6600   10.8200 H   0  0  0  0  0  0  0  0  0  0  0  0
    4.4790   -9.0820   19.7830 H   0  0  0  0  0  0  0  0  0  0  0  0
    8.7840    5.8830   12.2950 H   0  0  0  0  0  0  0  0  0  0  0  0
   11.1390   -5.0860   16.9850 H   0  0  0  0  0  0  0  0  0  0  0  0
    3.9200   -0.0780   15.2660 H   0  0  0  0  0  0  0  0  0  0  0  0
    9.9840   -4.5150   18.2050 H   0  0  0  0  0  0  0  0  0  0  0  0
    4.5230    5.4870    8.1470 H   0  0  0  0  0  0  0  0  0  0  0  0
    9.8230   -6.1300   17.5040 H   0  0  0  0  0  0  0  0  0  0  0  0
    1.7590   -3.9560   17.4620 H   0  0  0  0  0  0  0  0  0  0  0  0
    8.7910   -9.9370   20.7720 H   0  0  0  0  0  0  0  0  0  0  0  0
    7.2480  -10.8230   20.8520 H   0  0  0  0  0  0  0  0  0  0  0  0
    8.6290  -11.5200   19.9600 H   0  0  0  0  0  0  0  0  0  0  0  0
    6.2360    0.1040   16.9480 H   0  0  0  0  0  0  0  0  0  0  0  0
    4.5170    2.6370    8.3970 H   0  0  0  0  0  0  0  0  0  0  0  0
    6.2760    1.1870   14.8070 H   0  0  0  0  0  0  0  0  0  0  0  0
    6.8310   -0.4360   14.4240 H   0  0  0  0  0  0  0  0  0  0  0  0
    2.4350    3.3440    8.8840 H   0  0  0  0  0  0  0  0  0  0  0  0
    2.1910    5.0700    9.1040 H   0  0  0  0  0  0  0  0  0  0  0  0
    1.7500    5.5190    5.8140 H   0  0  0  0  0  0  0  0  0  0  0  0
  1 11  1  0  0  0  0
  1 47  1  0  0  0  0
  2 12  1  0  0  0  0
  3  8  1  0  0  0  0
  3 51  1  0  0  0  0
  3 13  1  0  0  0  0
  4 14  1  0  0  0  0
  4 50  1  0  0  0  0
  5 10  1  0  0  0  0
  5 53  1  0  0  0  0
  5 15  1  0  0  0  0
  6 52  1  6  0  0  0
  6 12  1  0  0  0  0
  6 23  1  0  0  0  0
  6  1  1  0  0  0  0
  7  2  1  0  0  0  0
  7 54  1  1  0  0  0
  8 25  1  0  0  0  0
  8 38  1  0  0  0  0
  8 57  1  6  0  0  0
  9 56  1  6  0  0  0
  9  4  1  0  0  0  0
 10 27  1  0  0  0  0
 10 39  1  0  0  0  0
 10 59  1  1  0  0  0
 11 17  2  0  0  0  0
 11 40  1  0  0  0  0
 12 18  2  0  0  0  0
 13  7  1  0  0  0  0
 14 20  2  0  0  0  0
 14 43  1  0  0  0  0
 15  9  1  0  0  0  0
 15 21  2  0  0  0  0
 16 22  2  0  0  0  0
 16 44  1  0  0  0  0
 16 45  1  0  0  0  0
 19 13  2  0  0  0  0
 23 58  1  0  0  0  0
 24  7  1  0  0  0  0
 24 33  1  0  0  0  0
 25 28  1  0  0  0  0
 25 46  1  0  0  0  0
 25 63  1  0  0  0  0
 26  9  1  0  0  0  0
 26 66  1  0  0  0  0
 27 29  1  0  0  0  0
 27 49  1  0  0  0  0
 27 68  1  0  0  0  0
 28 34  1  0  0  0  0
 28 36  1  0  0  0  0
 28 55  1  0  0  0  0
 29 35  1  0  0  0  0
 29 37  1  0  0  0  0
 29 61  1  0  0  0  0
 30 71  1  0  0  0  0
 30 69  1  0  0  0  0
 30 23  1  0  0  0  0
 31 24  1  0  0  0  0
 31 79  1  0  0  0  0
 32 23  1  0  0  0  0
 32 85  1  0  0  0  0
 33 89  1  0  0  0  0
 34 65  1  0  0  0  0
 34 67  1  0  0  0  0
 34 92  1  0  0  0  0
 35 70  1  0  0  0  0
 35 72  1  0  0  0  0
 35 74  1  0  0  0  0
 36 76  1  0  0  0  0
 36 78  1  0  0  0  0
 36 80  1  0  0  0  0
 37 82  1  0  0  0  0
 37 84  1  0  0  0  0
 37 86  1  0  0  0  0
 38 41  1  0  0  0  0
 38 43  1  0  0  0  0
 38 88  1  1  0  0  0
 39 42  1  0  0  0  0
 39 44  1  0  0  0  0
 39 90  1  6  0  0  0
 40 93  1  0  0  0  0
 40 94  1  0  0  0  0
 40 95  1  0  0  0  0
 41 96  1  0  0  0  0
 42 97  1  0  0  0  0
 43 98  1  0  0  0  0
 43 99  1  0  0  0  0
 44100  1  0  0  0  0
 44101  1  0  0  0  0
 45102  1  0  0  0  0
 48  2  1  0  0  0  0
 60 24  1  0  0  0  0
 62 26  1  0  0  0  0
 64 26  1  0  0  0  0
 73 30  1  0  0  0  0
 75 31  1  0  0  0  0
 77 31  1  0  0  0  0
 81 32  1  0  0  0  0
 83 32  1  0  0  0  0
 87 33  1  0  0  0  0
 91 33  1  0  0  0  0
M  END
>  <penalty_kcalmol>
13.80

>  <protonation_change>
deprotonated_in_solution

>  <protonation_site>
102

>  <protonation_pKa>
4.2

>  <protonation_pKa_method>
stardrop

>  <experiment_pH>
4.7

>  <protonated_energy_kcalmol>
-519.589

>  <deprotonated_energy_kcalmol>
-619.155

>  <charge>
0

>  <KI_NM>
116.00

>  <number_of_rotatable_bonds>
25

>  <lm5_entropy_jk>
57.88760377023577

>  <ligand_crystal_conformation>
A

$$$$
