5HVP
 OpenBabel11252210453D

102101  0  0  1  0  0  0  0  0999 V2000
    7.6760   -8.7760   19.3250 N   0  0  0  0  0  0  0  0  0  0  0  0
    7.0680   -6.0080   16.9320 N   0  0  0  0  0  0  0  0  0  0  0  0
    6.0370   -2.7660   16.1790 N   0  0  0  0  0  0  0  0  0  0  0  0
    4.3350    1.0820   13.0920 N   0  0  0  0  0  0  0  0  0  0  0  0
    3.5900    2.9830   10.0310 N   0  0  0  0  0  0  0  0  0  0  0  0
    6.9110   -8.1260   18.2120 C   0  0  2  0  0  0  0  0  0  0  0  0
    7.5940   -4.6510   16.5770 C   0  0  2  0  0  0  0  0  0  0  0  0
    4.7280   -2.2290   15.7490 C   0  0  1  0  0  0  0  0  0  0  0  0
    3.6660    1.2450   11.7790 C   0  0  2  0  0  0  0  0  0  0  0  0
    4.3610    4.1320    9.5250 C   0  0  1  0  0  0  0  0  0  0  0  0
    8.4620   -9.8710   19.1880 C   0  0  0  0  0  0  0  0  0  0  0  0
    7.1920   -6.5960   18.1750 C   0  0  0  0  0  0  0  0  0  0  0  0
    6.6080   -3.9030   15.6500 C   0  0  0  0  0  0  0  0  0  0  0  0
    5.1330    0.0100   13.3920 C   0  0  0  0  0  0  0  0  0  0  0  0
    3.4560    2.7420   11.3750 C   0  0  0  0  0  0  0  0  0  0  0  0
    1.8980    5.6610    6.8770 C   0  0  0  0  0  0  0  0  0  0  0  0
    8.7280  -10.3870   18.1240 O   0  0  0  0  0  0  0  0  0  0  0  0
    7.5640   -5.9590   19.1520 O   0  0  0  0  0  0  0  0  0  0  0  0
    6.3180   -4.3030   14.5350 O   0  0  0  0  0  0  0  0  0  0  0  0
    5.3800   -0.8710   12.5940 O   0  0  0  0  0  0  0  0  0  0  0  0
    3.2540    3.6450   12.1720 O   0  0  0  0  0  0  0  0  0  0  0  0
    2.5480    5.7440    5.8570 O   0  0  0  0  0  0  0  0  0  0  0  0
    5.3900   -8.4870   18.3100 C   0  0  0  0  0  0  0  0  0  0  0  0
    9.0110   -4.7640   15.9470 C   0  0  0  0  0  0  0  0  0  0  0  0
    3.6190   -2.8100   16.6710 C   0  0  0  0  0  0  0  0  0  0  0  0
    2.3570    0.4090   11.7810 C   0  0  0  0  0  0  0  0  0  0  0  0
    5.8650    3.7280    9.4430 C   0  0  0  0  0  0  0  0  0  0  0  0
    3.4680   -4.3330   16.6240 C   0  0  0  0  0  0  0  0  0  0  0  0
    6.6010    3.6630   10.7920 C   0  0  0  0  0  0  0  0  0  0  0  0
    4.5720   -8.0490   17.0880 C   0  0  0  0  0  0  0  0  0  0  0  0
    9.5910   -3.3900   15.5960 C   0  0  0  0  0  0  0  0  0  0  0  0
    5.1720  -10.0110   18.3960 C   0  0  0  0  0  0  0  0  0  0  0  0
   10.0070   -5.4130   16.9220 C   0  0  0  0  0  0  0  0  0  0  0  0
    2.5050   -4.7670   17.7090 C   0  0  0  0  0  0  0  0  0  0  0  0
    7.9200    2.9270   10.6060 C   0  0  0  0  0  0  0  0  0  0  0  0
    2.9030   -4.7870   15.2840 C   0  0  0  0  0  0  0  0  0  0  0  0
    6.9230    5.0700   11.2890 C   0  0  0  0  0  0  0  0  0  0  0  0
    4.6980   -0.6620   15.7580 C   0  0  1  0  0  0  0  0  0  0  0  0
    3.8440    4.6020    8.1250 C   0  0  1  0  0  0  0  0  0  0  0  0
    8.9790  -10.3980   20.4590 C   0  0  0  0  0  0  0  0  0  0  0  0
    5.0450   -0.1750   17.0400 O   0  0  0  0  0  0  0  0  0  0  0  0
    3.9010    3.5400    7.1750 O   0  0  0  0  0  0  0  0  0  0  0  0
    5.6820   -0.0240   14.7730 C   0  0  0  0  0  0  0  0  0  0  0  0
    2.3840    5.0810    8.1640 C   0  0  0  0  0  0  0  0  0  0  0  0
    0.6810    6.1740    6.9500 O   0  0  0  0  0  0  0  0  0  0  0  0
    3.8330   -2.5100   17.7050 H   0  0  0  0  0  0  0  0  0  0  0  0
    7.5000   -8.4720   20.2820 H   0  0  0  0  0  0  0  0  0  0  0  0
    6.8050   -6.6350   16.1720 H   0  0  0  0  0  0  0  0  0  0  0  0
    5.9290    2.7570    8.9360 H   0  0  0  0  0  0  0  0  0  0  0  0
    4.3300    1.8600   13.7500 H   0  0  0  0  0  0  0  0  0  0  0  0
    6.3540   -2.4770   17.0910 H   0  0  0  0  0  0  0  0  0  0  0  0
    7.2860   -8.5020   17.2520 H   0  0  0  0  0  0  0  0  0  0  0  0
    3.6200    2.1570    9.4350 H   0  0  0  0  0  0  0  0  0  0  0  0
    7.6650   -4.0490   17.4840 H   0  0  0  0  0  0  0  0  0  0  0  0
    4.4420   -4.8080   16.8140 H   0  0  0  0  0  0  0  0  0  0  0  0
    4.3420    0.8570   10.9990 H   0  0  0  0  0  0  0  0  0  0  0  0
    4.5230   -2.5520   14.7190 H   0  0  0  0  0  0  0  0  0  0  0  0
    4.9870   -7.9980   19.2150 H   0  0  0  0  0  0  0  0  0  0  0  0
    4.2530    4.9800   10.2220 H   0  0  0  0  0  0  0  0  0  0  0  0
    8.9240   -5.3770   15.0320 H   0  0  0  0  0  0  0  0  0  0  0  0
    6.0020    3.1300   11.5470 H   0  0  0  0  0  0  0  0  0  0  0  0
    1.6590    0.7640   12.5500 H   0  0  0  0  0  0  0  0  0  0  0  0
    2.6540   -2.3470   16.4360 H   0  0  0  0  0  0  0  0  0  0  0  0
    1.8490    0.4740   10.8090 H   0  0  0  0  0  0  0  0  0  0  0  0
    2.3380   -5.8500   17.6800 H   0  0  0  0  0  0  0  0  0  0  0  0
    2.5740   -0.6490   11.9720 H   0  0  0  0  0  0  0  0  0  0  0  0
    2.9200   -4.5340   18.6970 H   0  0  0  0  0  0  0  0  0  0  0  0
    6.4020    4.4260    8.7900 H   0  0  0  0  0  0  0  0  0  0  0  0
    3.5050   -8.2580   17.2320 H   0  0  0  0  0  0  0  0  0  0  0  0
    8.4350    2.8260   11.5680 H   0  0  0  0  0  0  0  0  0  0  0  0
    4.6580   -6.9750   16.9060 H   0  0  0  0  0  0  0  0  0  0  0  0
    7.7580    1.9140   10.2180 H   0  0  0  0  0  0  0  0  0  0  0  0
    4.8950   -8.5710   16.1830 H   0  0  0  0  0  0  0  0  0  0  0  0
    8.5860    3.4580    9.9150 H   0  0  0  0  0  0  0  0  0  0  0  0
   10.5880   -3.4830   15.1500 H   0  0  0  0  0  0  0  0  0  0  0  0
    2.0260   -4.1980   14.9990 H   0  0  0  0  0  0  0  0  0  0  0  0
    8.9630   -2.8680   14.8620 H   0  0  0  0  0  0  0  0  0  0  0  0
    3.6610   -4.6670   14.5030 H   0  0  0  0  0  0  0  0  0  0  0  0
    9.6790   -2.7540   16.4820 H   0  0  0  0  0  0  0  0  0  0  0  0
    2.6130   -5.8430   15.3160 H   0  0  0  0  0  0  0  0  0  0  0  0
    4.1060  -10.2670   18.4370 H   0  0  0  0  0  0  0  0  0  0  0  0
    7.5390    5.6240   10.5720 H   0  0  0  0  0  0  0  0  0  0  0  0
    5.6040  -10.5190   17.5240 H   0  0  0  0  0  0  0  0  0  0  0  0
    6.0070    5.6460   11.4670 H   0  0  0  0  0  0  0  0  0  0  0  0
    5.6500  -10.4400   19.2820 H   0  0  0  0  0  0  0  0  0  0  0  0
    7.4680    5.0290   12.2390 H   0  0  0  0  0  0  0  0  0  0  0  0
   11.0230   -5.4220   16.5190 H   0  0  0  0  0  0  0  0  0  0  0  0
    3.6670   -0.3470   15.5140 H   0  0  0  0  0  0  0  0  0  0  0  0
   10.0270   -4.8860   17.8830 H   0  0  0  0  0  0  0  0  0  0  0  0
    4.4900    5.4390    7.8030 H   0  0  0  0  0  0  0  0  0  0  0  0
    9.7370   -6.4570   17.1210 H   0  0  0  0  0  0  0  0  0  0  0  0
    1.5380   -4.2620   17.6170 H   0  0  0  0  0  0  0  0  0  0  0  0
    9.7780   -9.7460   20.8170 H   0  0  0  0  0  0  0  0  0  0  0  0
    8.1750  -10.4340   21.1980 H   0  0  0  0  0  0  0  0  0  0  0  0
    9.3700  -11.4060   20.2960 H   0  0  0  0  0  0  0  0  0  0  0  0
    6.0070    0.0600   17.0450 H   0  0  0  0  0  0  0  0  0  0  0  0
    3.6560    3.9590    6.3250 H   0  0  0  0  0  0  0  0  0  0  0  0
    5.9270    0.9970   15.0650 H   0  0  0  0  0  0  0  0  0  0  0  0
    6.6230   -0.5770   14.7500 H   0  0  0  0  0  0  0  0  0  0  0  0
    1.7130    4.2630    8.4370 H   0  0  0  0  0  0  0  0  0  0  0  0
    2.2570    5.8580    8.9230 H   0  0  0  0  0  0  0  0  0  0  0  0
    0.6120    6.5310    6.0450 H   0  0  0  0  0  0  0  0  0  0  0  0
  1 11  1  0  0  0  0
  1 47  1  0  0  0  0
  2 12  1  0  0  0  0
  3  8  1  0  0  0  0
  3 51  1  0  0  0  0
  3 13  1  0  0  0  0
  4 14  1  0  0  0  0
  4 50  1  0  0  0  0
  5 10  1  0  0  0  0
  5 53  1  0  0  0  0
  5 15  1  0  0  0  0
  6 52  1  6  0  0  0
  6 12  1  0  0  0  0
  6 23  1  0  0  0  0
  6  1  1  0  0  0  0
  7  2  1  0  0  0  0
  7 54  1  1  0  0  0
  8 25  1  0  0  0  0
  8 38  1  0  0  0  0
  8 57  1  6  0  0  0
  9 56  1  6  0  0  0
  9  4  1  0  0  0  0
 10 27  1  0  0  0  0
 10 39  1  0  0  0  0
 10 59  1  1  0  0  0
 11 17  2  0  0  0  0
 11 40  1  0  0  0  0
 12 18  2  0  0  0  0
 13  7  1  0  0  0  0
 14 20  2  0  0  0  0
 14 43  1  0  0  0  0
 15  9  1  0  0  0  0
 15 21  2  0  0  0  0
 16 22  2  0  0  0  0
 16 44  1  0  0  0  0
 16 45  1  0  0  0  0
 19 13  2  0  0  0  0
 23 58  1  0  0  0  0
 24  7  1  0  0  0  0
 24 33  1  0  0  0  0
 25 28  1  0  0  0  0
 25 46  1  0  0  0  0
 25 63  1  0  0  0  0
 26  9  1  0  0  0  0
 26 66  1  0  0  0  0
 27 29  1  0  0  0  0
 27 49  1  0  0  0  0
 27 68  1  0  0  0  0
 28 34  1  0  0  0  0
 28 36  1  0  0  0  0
 28 55  1  0  0  0  0
 29 35  1  0  0  0  0
 29 37  1  0  0  0  0
 29 61  1  0  0  0  0
 30 71  1  0  0  0  0
 30 69  1  0  0  0  0
 30 23  1  0  0  0  0
 31 24  1  0  0  0  0
 31 79  1  0  0  0  0
 32 23  1  0  0  0  0
 32 85  1  0  0  0  0
 33 89  1  0  0  0  0
 34 65  1  0  0  0  0
 34 67  1  0  0  0  0
 34 92  1  0  0  0  0
 35 70  1  0  0  0  0
 35 72  1  0  0  0  0
 35 74  1  0  0  0  0
 36 76  1  0  0  0  0
 36 78  1  0  0  0  0
 36 80  1  0  0  0  0
 37 82  1  0  0  0  0
 37 84  1  0  0  0  0
 37 86  1  0  0  0  0
 38 41  1  0  0  0  0
 38 43  1  0  0  0  0
 38 88  1  1  0  0  0
 39 42  1  0  0  0  0
 39 44  1  0  0  0  0
 39 90  1  6  0  0  0
 40 93  1  0  0  0  0
 40 94  1  0  0  0  0
 40 95  1  0  0  0  0
 41 96  1  0  0  0  0
 42 97  1  0  0  0  0
 43 98  1  0  0  0  0
 43 99  1  0  0  0  0
 44100  1  0  0  0  0
 44101  1  0  0  0  0
 45102  1  0  0  0  0
 48  2  1  0  0  0  0
 60 24  1  0  0  0  0
 62 26  1  0  0  0  0
 64 26  1  0  0  0  0
 73 30  1  0  0  0  0
 75 31  1  0  0  0  0
 77 31  1  0  0  0  0
 81 32  1  0  0  0  0
 83 32  1  0  0  0  0
 87 33  1  0  0  0  0
 91 33  1  0  0  0  0
M  END
>  <penalty_kcalmol>
13.80

>  <protonation_change>
deprotonated_in_solution

>  <protonation_site>
102

>  <protonation_pKa>
4.2

>  <protonation_pKa_method>
stardrop

>  <experiment_pH>
4.7

>  <protonated_energy_kcalmol>
-519.589

>  <deprotonated_energy_kcalmol>
-619.155

>  <charge>
0

>  <KI_NM>
116

>  <number_of_rotatable_bonds>
25

>  <lm5_entropy_jk>
57.88760377023577

>  <ligand_crystal_conformation>
A

$$$$
