3EHX
 OpenBabel11252210453D

 45 46  0  0  1  0  0  0  0  0999 V2000
    4.9070   23.9200    4.5610 C   0  0  0  0  0  0  0  0  0  0  0  0
    8.6770   26.5270    1.7850 N   0  0  0  0  0  0  0  0  0  0  0  0
    9.7780   25.6150    3.8380 O   0  0  0  0  0  0  0  0  0  0  0  0
    8.5970   26.3650    3.4220 S   0  0  0  0  0  0  0  0  0  0  0  0
    3.7160   23.2650    5.2150 C   0  0  0  0  0  0  0  0  0  0  0  0
    8.3430   27.7160    3.9080 O   0  0  0  0  0  0  0  0  0  0  0  0
    6.1660   23.2830    4.4120 C   0  0  0  0  0  0  0  0  0  0  0  0
    6.9120   24.3100    0.3820 O   0  0  0  0  0  0  0  0  0  0  0  0
    4.8380   25.2770    4.2000 C   0  0  0  0  0  0  0  0  0  0  0  0
    8.7240   23.1080    0.3570 O   0  0  0  0  0  0  0  0  0  0  0  0
    7.3060   23.9860    3.9850 C   0  0  0  0  0  0  0  0  0  0  0  0
    5.9590   26.0100    3.8250 C   0  0  0  0  0  0  0  0  0  0  0  0
    7.1870   25.3620    3.7010 C   0  0  0  0  0  0  0  0  0  0  0  0
    3.8880   22.1870    6.1120 C   0  0  0  0  0  0  0  0  0  0  0  0
    2.3930   23.7690    5.0700 C   0  0  0  0  0  0  0  0  0  0  0  0
    2.8080   21.6510    6.8270 C   0  0  0  0  0  0  0  0  0  0  0  0
    1.5250   22.1940    6.6950 C   0  0  0  0  0  0  0  0  0  0  0  0
    1.3170   23.2540    5.8080 C   0  0  0  0  0  0  0  0  0  0  0  0
   10.3060   28.2890   -0.9000 C   0  0  0  0  0  0  0  0  0  0  0  0
   10.5870   26.7970   -0.7660 C   0  0  0  0  0  0  0  0  0  0  0  0
    8.0700   24.1780    0.7860 C   0  0  0  0  0  0  0  0  0  0  0  0
    9.2630   26.0360   -0.5740 C   0  0  0  0  0  0  0  0  0  0  0  0
    9.0580   25.4040    0.8450 C   0  0  1  0  0  0  0  0  0  0  0  0
   11.2540   26.3650   -2.0670 C   0  0  0  0  0  0  0  0  0  0  0  0
    7.7000   26.7800    1.7070 H   0  0  0  0  0  0  0  0  0  0  0  0
    6.2690   22.2290    4.6460 H   0  0  0  0  0  0  0  0  0  0  0  0
    3.8940   25.7870    4.2790 H   0  0  0  0  0  0  0  0  0  0  0  0
    8.2690   23.4660    3.9340 H   0  0  0  0  0  0  0  0  0  0  0  0
    5.8810   27.0910    3.6920 H   0  0  0  0  0  0  0  0  0  0  0  0
    4.8790   21.7910    6.2840 H   0  0  0  0  0  0  0  0  0  0  0  0
    2.1800   24.5770    4.3840 H   0  0  0  0  0  0  0  0  0  0  0  0
    2.9710   20.8180    7.4960 H   0  0  0  0  0  0  0  0  0  0  0  0
    0.6930   21.7890    7.2700 H   0  0  0  0  0  0  0  0  0  0  0  0
    0.3190   23.6700    5.6760 H   0  0  0  0  0  0  0  0  0  0  0  0
   11.2370   28.8640   -0.9730 H   0  0  0  0  0  0  0  0  0  0  0  0
    9.7580   28.6560   -0.0230 H   0  0  0  0  0  0  0  0  0  0  0  0
    9.7020   28.5130   -1.7880 H   0  0  0  0  0  0  0  0  0  0  0  0
   11.2710   26.6020    0.0790 H   0  0  0  0  0  0  0  0  0  0  0  0
    9.2210   25.2370   -1.3280 H   0  0  0  0  0  0  0  0  0  0  0  0
    8.4200   26.6980   -0.8140 H   0  0  0  0  0  0  0  0  0  0  0  0
   10.0200   24.9540    1.1520 H   0  0  0  0  0  0  0  0  0  0  0  0
   10.6040   26.5400   -2.9350 H   0  0  0  0  0  0  0  0  0  0  0  0
   11.5160   25.3010   -2.0470 H   0  0  0  0  0  0  0  0  0  0  0  0
   12.1860   26.9200   -2.2350 H   0  0  0  0  0  0  0  0  0  0  0  0
    8.7180   22.4620    1.1210 H   0  0  0  0  0  0  0  0  0  0  0  0
  1  5  1  0  0  0  0
  1  7  2  0  0  0  0
  1  9  1  0  0  0  0
  2  4  1  0  0  0  0
  2 23  1  0  0  0  0
  2 25  1  0  0  0  0
  3  4  2  0  0  0  0
  4  6  2  0  0  0  0
  4 13  1  0  0  0  0
  5 14  2  0  0  0  0
  5 15  1  0  0  0  0
  7 11  1  0  0  0  0
  7 26  1  0  0  0  0
  8 21  2  0  0  0  0
  9 12  2  0  0  0  0
  9 27  1  0  0  0  0
 10 21  1  0  0  0  0
 10 45  1  0  0  0  0
 11 13  2  0  0  0  0
 11 28  1  0  0  0  0
 12 13  1  0  0  0  0
 12 29  1  0  0  0  0
 14 16  1  0  0  0  0
 14 30  1  0  0  0  0
 15 18  2  0  0  0  0
 15 31  1  0  0  0  0
 16 17  2  0  0  0  0
 16 32  1  0  0  0  0
 17 18  1  0  0  0  0
 17 33  1  0  0  0  0
 18 34  1  0  0  0  0
 19 20  1  0  0  0  0
 19 35  1  0  0  0  0
 19 36  1  0  0  0  0
 19 37  1  0  0  0  0
 20 22  1  0  0  0  0
 20 24  1  0  0  0  0
 20 38  1  0  0  0  0
 21 23  1  0  0  0  0
 22 23  1  0  0  0  0
 22 39  1  0  0  0  0
 22 40  1  0  0  0  0
 23 41  1  1  0  0  0
 24 42  1  0  0  0  0
 24 43  1  0  0  0  0
 24 44  1  0  0  0  0
M  END
>  <lm5_entropy_jk>
38.87358454694946

>  <number_of_rotatable_bonds>
7

>  <deltaG_kcalmol>
-10.38

>  <charge>
0

>  <protonation_change>
deprotonated_in_solution

>  <protonation_site>
45

>  <protonation_pKa>
2.36

>  <experiment_pH>
7.2

>  <protonation_pKa_method>
pKa of leucine

>  <protonated_energy_kcalmol>
-154.393863

>  <deprotonated_energy_kcalmol>
-245.115034

$$$$
