3EHY
 OpenBabel11252210453D

 30 30  0  0  1  0  0  0  0  0999 V2000
    8.0180   24.0840    0.8950 C   0  0  0  0  0  0  0  0  0  0  0  0
    7.5120   25.7690    2.7310 N   0  0  0  0  0  0  0  0  0  0  0  0
    6.9340   24.1850    0.3280 O   0  0  0  0  0  0  0  0  0  0  0  0
    7.7050   26.0280    4.3130 S   0  0  0  0  0  0  0  0  0  0  0  0
    8.5800   25.1530    1.9010 C   0  0  2  0  0  0  0  0  0  0  0  0
    8.9230   23.2490    0.4080 O   0  0  0  0  0  0  0  0  0  0  0  0
    6.3720   24.9810    4.6880 C   0  0  0  0  0  0  0  0  0  0  0  0
    8.9730   25.3970    4.6780 O   0  0  0  0  0  0  0  0  0  0  0  0
    5.0910   25.4410    4.3770 C   0  0  0  0  0  0  0  0  0  0  0  0
    7.3570   27.4210    4.5440 O   0  0  0  0  0  0  0  0  0  0  0  0
    4.0040   24.6200    4.6450 C   0  0  0  0  0  0  0  0  0  0  0  0
    3.0360   22.6860    5.5680 O   0  0  0  0  0  0  0  0  0  0  0  0
    4.1740   23.3950    5.2550 C   0  0  0  0  0  0  0  0  0  0  0  0
    2.9720   21.5700    6.4880 C   0  0  0  0  0  0  0  0  0  0  0  0
    5.4620   22.9360    5.5400 C   0  0  0  0  0  0  0  0  0  0  0  0
    6.5860   23.7070    5.2260 C   0  0  0  0  0  0  0  0  0  0  0  0
    9.2410   26.3600    1.2000 C   0  0  0  0  0  0  0  0  0  0  0  0
    6.8720   25.0540    3.0810 H   0  0  0  0  0  0  0  0  0  0  0  0
    9.3280   24.5930    2.4970 H   0  0  0  0  0  0  0  0  0  0  0  0
    4.9300   26.4120    3.9140 H   0  0  0  0  0  0  0  0  0  0  0  0
    2.9910   24.9330    4.4090 H   0  0  0  0  0  0  0  0  0  0  0  0
    1.9380   21.2000    6.5530 H   0  0  0  0  0  0  0  0  0  0  0  0
    3.2800   21.8690    7.4980 H   0  0  0  0  0  0  0  0  0  0  0  0
    3.5960   20.7380    6.1410 H   0  0  0  0  0  0  0  0  0  0  0  0
    5.5980   21.9650    5.9830 H   0  0  0  0  0  0  0  0  0  0  0  0
    7.5900   23.3150    5.4190 H   0  0  0  0  0  0  0  0  0  0  0  0
    8.5200   26.8870    0.5550 H   0  0  0  0  0  0  0  0  0  0  0  0
   10.0830   26.0530    0.5600 H   0  0  0  0  0  0  0  0  0  0  0  0
    9.6110   27.1040    1.9130 H   0  0  0  0  0  0  0  0  0  0  0  0
    8.9920   22.5520    1.1140 H   0  0  0  0  0  0  0  0  0  0  0  0
  1  3  2  0  0  0  0
  1  5  1  0  0  0  0
  1  6  1  0  0  0  0
  2  4  1  0  0  0  0
  2  5  1  0  0  0  0
  2 18  1  0  0  0  0
  4  7  1  0  0  0  0
  4  8  2  0  0  0  0
  4 10  2  0  0  0  0
  5 17  1  0  0  0  0
  5 19  1  1  0  0  0
  6 30  1  0  0  0  0
  7  9  2  0  0  0  0
  7 16  1  0  0  0  0
  9 11  1  0  0  0  0
  9 20  1  0  0  0  0
 11 13  2  0  0  0  0
 11 21  1  0  0  0  0
 12 13  1  0  0  0  0
 12 14  1  0  0  0  0
 13 15  1  0  0  0  0
 14 22  1  0  0  0  0
 14 23  1  0  0  0  0
 14 24  1  0  0  0  0
 15 16  2  0  0  0  0
 15 25  1  0  0  0  0
 16 26  1  0  0  0  0
 17 27  1  0  0  0  0
 17 28  1  0  0  0  0
 17 29  1  0  0  0  0
M  END
>  <lm5_entropy_jk>
36.00760943656307

>  <number_of_rotatable_bonds>
5

>  <deltaG_kcalmol>
-7.99

>  <charge>
0

>  <protonation_change>
deprotonated_in_solution

>  <protonation_site>
30

>  <protonation_pKa>
2.34

>  <experiment_pH>
7.2

>  <protonation_pKa_method>
pKa of alanine

>  <protonated_energy_kcalmol>
-210.921508

>  <deprotonated_energy_kcalmol>
-305.667470

$$$$
