3EHY
 OpenBabel11252210453D

 30 30  0  0  1  0  0  0  0  0999 V2000
    7.9710   24.1120    0.8560 C   0  0  0  0  0  0  0  0  0  0  0  0
    7.5380   25.9630    2.5930 N   0  0  0  0  0  0  0  0  0  0  0  0
    6.8780   24.2550    0.3080 O   0  0  0  0  0  0  0  0  0  0  0  0
    7.7440   26.5140    4.1080 S   0  0  0  0  0  0  0  0  0  0  0  0
    8.5690   25.1260    1.9130 C   0  0  2  0  0  0  0  0  0  0  0  0
    8.8800   23.3290    0.2760 O   0  0  0  0  0  0  0  0  0  0  0  0
    6.3730   25.6040    4.6670 C   0  0  0  0  0  0  0  0  0  0  0  0
    8.9880   25.9040    4.5920 O   0  0  0  0  0  0  0  0  0  0  0  0
    5.0890   26.0870    4.3830 C   0  0  0  0  0  0  0  0  0  0  0  0
    7.4580   27.9440    4.0570 O   0  0  0  0  0  0  0  0  0  0  0  0
    4.0010   25.3000    4.7540 C   0  0  0  0  0  0  0  0  0  0  0  0
    3.0460   23.3820    5.7600 O   0  0  0  0  0  0  0  0  0  0  0  0
    4.1760   24.0910    5.4090 C   0  0  0  0  0  0  0  0  0  0  0  0
    3.0320   22.1740    6.5660 C   0  0  0  0  0  0  0  0  0  0  0  0
    5.4650   23.6380    5.6980 C   0  0  0  0  0  0  0  0  0  0  0  0
    6.5850   24.3860    5.3270 C   0  0  0  0  0  0  0  0  0  0  0  0
    9.5230   26.1540    1.2610 C   0  0  0  0  0  0  0  0  0  0  0  0
    6.8320   25.3830    3.0500 H   0  0  0  0  0  0  0  0  0  0  0  0
    9.1240   24.4780    2.6250 H   0  0  0  0  0  0  0  0  0  0  0  0
    4.9180   27.0350    3.8600 H   0  0  0  0  0  0  0  0  0  0  0  0
    2.9870   25.6200    4.5370 H   0  0  0  0  0  0  0  0  0  0  0  0
    1.9990   21.8120    6.6840 H   0  0  0  0  0  0  0  0  0  0  0  0
    3.4310   22.3650    7.5730 H   0  0  0  0  0  0  0  0  0  0  0  0
    3.6110   21.3700    6.0930 H   0  0  0  0  0  0  0  0  0  0  0  0
    5.6060   22.6930    6.2030 H   0  0  0  0  0  0  0  0  0  0  0  0
    7.5900   24.0060    5.5440 H   0  0  0  0  0  0  0  0  0  0  0  0
    8.9900   26.7670    0.5190 H   0  0  0  0  0  0  0  0  0  0  0  0
   10.3530   25.6540    0.7370 H   0  0  0  0  0  0  0  0  0  0  0  0
    9.9640   26.8400    1.9920 H   0  0  0  0  0  0  0  0  0  0  0  0
    9.1500   22.7180    1.0120 H   0  0  0  0  0  0  0  0  0  0  0  0
  1  3  2  0  0  0  0
  1  5  1  0  0  0  0
  1  6  1  0  0  0  0
  2  4  1  0  0  0  0
  2  5  1  0  0  0  0
  2 18  1  0  0  0  0
  4  7  1  0  0  0  0
  4  8  2  0  0  0  0
  4 10  2  0  0  0  0
  5 17  1  0  0  0  0
  5 19  1  1  0  0  0
  6 30  1  0  0  0  0
  7  9  2  0  0  0  0
  7 16  1  0  0  0  0
  9 11  1  0  0  0  0
  9 20  1  0  0  0  0
 11 13  2  0  0  0  0
 11 21  1  0  0  0  0
 12 13  1  0  0  0  0
 12 14  1  0  0  0  0
 13 15  1  0  0  0  0
 14 22  1  0  0  0  0
 14 23  1  0  0  0  0
 14 24  1  0  0  0  0
 15 16  2  0  0  0  0
 15 25  1  0  0  0  0
 16 26  1  0  0  0  0
 17 27  1  0  0  0  0
 17 28  1  0  0  0  0
 17 29  1  0  0  0  0
M  END
>  <lm5_entropy_jk>
36.00760943656307

>  <number_of_rotatable_bonds>
5

>  <deltaG_kcalmol>
-7.99

>  <charge>
0

>  <protonation_change>
deprotonated_in_solution

>  <protonation_site>
30

>  <protonation_pKa>
2.34

>  <experiment_pH>
7.2

>  <protonation_pKa_method>
pKa of alanine

>  <protonated_energy_kcalmol>
-210.921508

>  <deprotonated_energy_kcalmol>
-305.667470

$$$$
