3EHY
 OpenBabel11252210453D

 30 30  0  0  1  0  0  0  0  0999 V2000
    7.6660   24.1030    0.8310 C   0  0  0  0  0  0  0  0  0  0  0  0
    7.9780   26.0250    2.2120 N   0  0  0  0  0  0  0  0  0  0  0  0
    6.7550   24.4900    0.1230 O   0  0  0  0  0  0  0  0  0  0  0  0
    7.9760   26.2450    3.9250 S   0  0  0  0  0  0  0  0  0  0  0  0
    8.7240   24.9170    1.5850 C   0  0  2  0  0  0  0  0  0  0  0  0
    7.6620   22.7330    0.9040 O   0  0  0  0  0  0  0  0  0  0  0  0
    6.6080   25.3410    4.4160 C   0  0  0  0  0  0  0  0  0  0  0  0
    9.2330   25.7130    4.4580 O   0  0  0  0  0  0  0  0  0  0  0  0
    5.3170   25.8600    4.1770 C   0  0  0  0  0  0  0  0  0  0  0  0
    7.7660   27.6740    4.1340 O   0  0  0  0  0  0  0  0  0  0  0  0
    4.1880   25.1690    4.5800 C   0  0  0  0  0  0  0  0  0  0  0  0
    3.1460   23.3970    5.6210 O   0  0  0  0  0  0  0  0  0  0  0  0
    4.3440   23.9350    5.2580 C   0  0  0  0  0  0  0  0  0  0  0  0
    3.0950   22.1650    6.3890 C   0  0  0  0  0  0  0  0  0  0  0  0
    5.6180   23.3920    5.4870 C   0  0  0  0  0  0  0  0  0  0  0  0
    6.7390   24.0960    5.0450 C   0  0  0  0  0  0  0  0  0  0  0  0
    9.7550   25.3970    0.5600 C   0  0  0  0  0  0  0  0  0  0  0  0
    8.0040   26.8910    1.6370 H   0  0  0  0  0  0  0  0  0  0  0  0
    9.2220   24.2700    2.3640 H   0  0  0  0  0  0  0  0  0  0  0  0
    5.1930   26.8200    3.6620 H   0  0  0  0  0  0  0  0  0  0  0  0
    3.1800   25.5480    4.3920 H   0  0  0  0  0  0  0  0  0  0  0  0
    3.6710   21.3610    5.8910 H   0  0  0  0  0  0  0  0  0  0  0  0
    1.9960   21.9540    6.3610 H   0  0  0  0  0  0  0  0  0  0  0  0
    3.4440   22.3640    7.4240 H   0  0  0  0  0  0  0  0  0  0  0  0
    5.7500   22.4410    5.9940 H   0  0  0  0  0  0  0  0  0  0  0  0
    7.7330   23.6540    5.2000 H   0  0  0  0  0  0  0  0  0  0  0  0
    9.3160   26.0650   -0.2190 H   0  0  0  0  0  0  0  0  0  0  0  0
   10.2410   24.5280    0.0560 H   0  0  0  0  0  0  0  0  0  0  0  0
   10.5650   25.9620    1.0780 H   0  0  0  0  0  0  0  0  0  0  0  0
    8.3470   22.2560    1.5610 H   0  0  0  0  0  0  0  0  0  0  0  0
  1  3  2  0  0  0  0
  1  5  1  0  0  0  0
  1  6  1  0  0  0  0
  2  4  1  0  0  0  0
  2  5  1  0  0  0  0
  2 18  1  0  0  0  0
  4  7  1  0  0  0  0
  4  8  2  0  0  0  0
  4 10  2  0  0  0  0
  5 17  1  0  0  0  0
  5 19  1  1  0  0  0
  6 30  1  0  0  0  0
  7  9  2  0  0  0  0
  7 16  1  0  0  0  0
  9 11  1  0  0  0  0
  9 20  1  0  0  0  0
 11 13  2  0  0  0  0
 11 21  1  0  0  0  0
 12 13  1  0  0  0  0
 12 14  1  0  0  0  0
 13 15  1  0  0  0  0
 14 22  1  0  0  0  0
 14 23  1  0  0  0  0
 14 24  1  0  0  0  0
 15 16  2  0  0  0  0
 15 25  1  0  0  0  0
 16 26  1  0  0  0  0
 17 27  1  0  0  0  0
 17 28  1  0  0  0  0
 17 29  1  0  0  0  0
M  END
>  <lm5_entropy_jk>
36.00760943656307

>  <number_of_rotatable_bonds>
5

>  <deltaG_kcalmol>
-7.99

>  <charge>
0

>  <protonation_change>
deprotonated_in_solution

>  <protonation_site>
30

>  <protonation_pKa>
2.34

>  <experiment_pH>
7.2

>  <protonation_pKa_method>
pKa of alanine

>  <protonated_energy_kcalmol>
-210.921508

>  <deprotonated_energy_kcalmol>
-305.667470

$$$$
