3PVG
 OpenBabel11252210453D

 21 22  0  0  1  0  0  0  0  0999 V2000
   22.1880    6.8540   20.5380 C   0  0  0  0  0  0  0  0  0  0  0  0
   23.1880    6.2580   19.8320 C   0  0  0  0  0  0  0  0  0  0  0  0
   23.4580    6.8150   18.6040 C   0  0  0  0  0  0  0  0  0  0  0  0
   22.7840    7.9160   18.0200 C   0  0  0  0  0  0  0  0  0  0  0  0
   21.7830    8.4740   18.8030 C   0  0  0  0  0  0  0  0  0  0  0  0
   21.4920    7.9370   20.0490 C   0  0  0  0  0  0  0  0  0  0  0  0
   23.9950    5.1750   20.0710 N   0  0  0  0  0  0  0  0  0  0  0  0
   24.7830    5.0850   18.9660 C   0  0  0  0  0  0  0  0  0  0  0  0
   24.4200    6.0720   18.1070 N   0  0  0  0  0  0  0  0  0  0  0  0
   24.9130    6.5120   16.8760 C   0  0  0  0  0  0  0  0  0  0  0  0
   25.2110    5.4880   15.9400 C   0  0  0  0  0  0  0  0  0  0  0  0
   25.0320    6.0130   14.8100 O   0  0  0  0  0  0  0  0  0  0  0  0
   25.6370    4.4110   16.4480 O   0  0  0  0  0  0  0  0  0  0  0  0
   21.8760    6.0730   22.2010 Br  0  0  0  0  0  0  0  0  0  0  0  0
   20.1350    8.7490   21.1220 Br  0  0  0  0  0  0  0  0  0  0  0  0
   20.7560    9.9650   18.1830 Br  0  0  0  0  0  0  0  0  0  0  0  0
   23.1760    8.7300   16.3190 Br  0  0  0  0  0  0  0  0  0  0  0  0
   25.5691    4.3487   18.7991 H   0  0  0  0  0  0  0  0  0  0  0  0
   25.8000    3.7710   15.7520 H   0  0  0  0  0  0  0  0  0  0  0  0
   25.8260    7.0760   17.0610 H   0  0  0  0  0  0  0  0  0  0  0  0
   24.1150    7.1040   16.4280 H   0  0  0  0  0  0  0  0  0  0  0  0
  1  2  2  0  0  0  0
  1  6  1  0  0  0  0
  1 14  1  0  0  0  0
  2  3  1  0  0  0  0
  2  7  1  0  0  0  0
  3  4  2  0  0  0  0
  3  9  1  0  0  0  0
  4  5  1  0  0  0  0
  4 17  1  0  0  0  0
  5  6  2  0  0  0  0
  5 16  1  0  0  0  0
  6 15  1  0  0  0  0
  7  8  2  0  0  0  0
  8  9  1  0  0  0  0
  8 18  1  0  0  0  0
  9 10  1  0  0  0  0
 10 11  1  0  0  0  0
 10 20  1  0  0  0  0
 10 21  1  0  0  0  0
 11 12  2  0  0  0  0
 11 13  1  0  0  0  0
 13 19  1  0  0  0  0
M  END
>  <Ki_NM>
1340

>  <charge>
0

>  <number_of_rotatable_bonds>
2

>  <lm5_entropy_jk>
18.17250520339831

>  <penalty_kcalmol>
15.96

>  <protonation_change>
deprotonated_in_solution

>  <protonation_site>
19

>  <protonation_pKa>
3.325

>  <protonation_pKa_method>
stardrop

>  <experiment_pH>
7.4

>  <protonated_energy_kcalmol>
-31.325

>  <deprotonated_energy_kcalmol>
-128.689

$$$$
