6t0p+2.pdb
 OpenBabel11252210453D

 54 56  0  0  1  0  0  0  0  0999 V2000
   -0.6320   20.7220   15.6440 N   0  3  0  0  0  0  0  0  0  0  0  0
    0.7820   20.8800   16.2540 C   0  0  2  0  0  0  0  0  0  0  0  0
   -0.4290   18.4090   19.8520 O   0  0  0  0  0  0  0  0  0  0  0  0
    1.7870   21.0430   15.0950 C   0  0  0  0  0  0  0  0  0  0  0  0
    1.6330   19.7780   18.3490 N   0  0  0  0  0  0  0  0  0  0  0  0
    0.8490   18.4990   16.6590 O   0  0  0  0  0  0  0  0  0  0  0  0
    3.1510   21.5190   15.5310 C   0  0  0  0  0  0  0  0  0  0  0  0
    0.6490   16.4680   19.2840 N   0  0  0  0  0  0  0  0  0  0  0  0
    4.2930   20.7630   15.2360 C   0  0  0  0  0  0  0  0  0  0  0  0
   -2.4710   15.5080   15.3450 N   0  3  0  0  0  0  0  0  0  0  0  0
    5.5640   21.2590   15.5490 C   0  0  0  0  0  0  0  0  0  0  0  0
   -1.9340   13.2100   15.0230 N   0  0  0  0  0  0  0  0  0  0  0  0
    5.7000   22.5020   16.1730 C   0  0  0  0  0  0  0  0  0  0  0  0
    4.5590   23.2550   16.4770 C   0  0  0  0  0  0  0  0  0  0  0  0
    3.2910   22.7730   16.1490 C   0  0  0  0  0  0  0  0  0  0  0  0
    1.0890   19.6270   17.1030 C   0  0  0  0  0  0  0  0  0  0  0  0
    1.9250   18.5900   19.2110 C   0  0  2  0  0  0  0  0  0  0  0  0
    0.5870   17.8480   19.4820 C   0  0  0  0  0  0  0  0  0  0  0  0
   -0.5210   15.5780   19.1990 C   0  0  0  0  0  0  0  0  0  0  0  0
   -1.1220   15.5330   17.8050 C   0  0  0  0  0  0  0  0  0  0  0  0
   -1.6780   16.7330   17.2560 C   0  0  0  0  0  0  0  0  0  0  0  0
   -2.3360   16.7080   16.0590 C   0  0  0  0  0  0  0  0  0  0  0  0
   -1.9010   14.3300   15.8150 C   0  0  0  0  0  0  0  0  0  0  0  0
   -1.2210   14.3640   17.0790 C   0  0  0  0  0  0  0  0  0  0  0  0
    2.5590   19.1470   20.5010 C   0  0  0  0  0  0  0  0  0  0  0  0
    2.6970   20.6730   20.3310 C   0  0  0  0  0  0  0  0  0  0  0  0
    1.9830   21.0670   19.0250 C   0  0  0  0  0  0  0  0  0  0  0  0
   -0.8730   21.6030   15.0920 H   0  0  0  0  0  0  0  0  0  0  0  0
   -1.3610   20.6110   16.4040 H   0  0  0  0  0  0  0  0  0  0  0  0
   -0.6700   19.8810   14.9890 H   0  0  0  0  0  0  0  0  0  0  0  0
    0.7370   21.8260   16.8710 H   0  0  0  0  0  0  0  0  0  0  0  0
    1.3780   21.8190   14.3820 H   0  0  0  0  0  0  0  0  0  0  0  0
    1.8630   20.0780   14.5340 H   0  0  0  0  0  0  0  0  0  0  0  0
    1.5590   16.0200   19.0860 H   0  0  0  0  0  0  0  0  0  0  0  0
    4.1970   19.7940   14.7480 H   0  0  0  0  0  0  0  0  0  0  0  0
    6.4470   20.6610   15.2960 H   0  0  0  0  0  0  0  0  0  0  0  0
   -2.6290   13.1220   14.2360 H   0  0  0  0  0  0  0  0  0  0  0  0
   -1.6640   12.3040   15.4710 H   0  0  0  0  0  0  0  0  0  0  0  0
    6.6930   22.8940   16.4200 H   0  0  0  0  0  0  0  0  0  0  0  0
    4.6480   24.2310   16.9680 H   0  0  0  0  0  0  0  0  0  0  0  0
    2.4040   23.3800   16.3520 H   0  0  0  0  0  0  0  0  0  0  0  0
    2.6510   17.9300   18.6640 H   0  0  0  0  0  0  0  0  0  0  0  0
   -0.2140   14.5410   19.5240 H   0  0  0  0  0  0  0  0  0  0  0  0
   -1.3410   15.9340   19.8960 H   0  0  0  0  0  0  0  0  0  0  0  0
    3.5640   18.6810   20.6540 H   0  0  0  0  0  0  0  0  0  0  0  0
    1.9190   18.9240   21.3860 H   0  0  0  0  0  0  0  0  0  0  0  0
    2.2350   21.2170   21.1930 H   0  0  0  0  0  0  0  0  0  0  0  0
    3.7750   20.9680   20.2790 H   0  0  0  0  0  0  0  0  0  0  0  0
    1.0440   21.6480   19.2300 H   0  0  0  0  0  0  0  0  0  0  0  0
    2.6590   21.6690   18.3610 H   0  0  0  0  0  0  0  0  0  0  0  0
   -2.8000   17.5970   15.6020 H   0  0  0  0  0  0  0  0  0  0  0  0
   -1.5960   17.6870   17.7920 H   0  0  0  0  0  0  0  0  0  0  0  0
   -0.8080   13.4150   17.4480 H   0  0  0  0  0  0  0  0  0  0  0  0
   -3.0420   15.5500   14.4700 H   0  0  0  0  0  0  0  0  0  0  0  0
  1  2  1  0  0  0  0
  1 28  1  0  0  0  0
  1 29  1  0  0  0  0
  1 30  1  0  0  0  0
  2  4  1  0  0  0  0
  2 16  1  0  0  0  0
  2 31  1  1  0  0  0
  3 18  2  0  0  0  0
  4  7  1  0  0  0  0
  4 32  1  0  0  0  0
  4 33  1  0  0  0  0
  5 16  1  0  0  0  0
  5 17  1  0  0  0  0
  5 27  1  0  0  0  0
  6 16  2  0  0  0  0
  7  9  2  0  0  0  0
  7 15  1  0  0  0  0
  8 18  1  0  0  0  0
  8 19  1  0  0  0  0
  8 34  1  0  0  0  0
  9 11  1  0  0  0  0
  9 35  1  0  0  0  0
 10 22  2  0  0  0  0
 10 23  1  0  0  0  0
 10 54  1  0  0  0  0
 11 13  2  0  0  0  0
 11 36  1  0  0  0  0
 12 23  1  0  0  0  0
 12 37  1  0  0  0  0
 12 38  1  0  0  0  0
 13 14  1  0  0  0  0
 13 39  1  0  0  0  0
 14 15  2  0  0  0  0
 14 40  1  0  0  0  0
 15 41  1  0  0  0  0
 17 18  1  0  0  0  0
 17 25  1  0  0  0  0
 17 42  1  6  0  0  0
 19 20  1  0  0  0  0
 19 43  1  0  0  0  0
 19 44  1  0  0  0  0
 20 21  2  0  0  0  0
 20 24  1  0  0  0  0
 21 22  1  0  0  0  0
 21 52  1  0  0  0  0
 22 51  1  0  0  0  0
 23 24  2  0  0  0  0
 24 53  1  0  0  0  0
 25 26  1  0  0  0  0
 25 45  1  0  0  0  0
 25 46  1  0  0  0  0
 26 27  1  0  0  0  0
 26 47  1  0  0  0  0
 26 48  1  0  0  0  0
 27 49  1  0  0  0  0
 27 50  1  0  0  0  0
M  CHG  2   1   1  10   1
M  END
>  <number_of_rotatable_bonds>
8

>  <lm5_entropy_jk>
21.57145520137845

>  <protonation_change>
deprotonated_in_solution

>  <protonation_site>
54

>  <protonation_pKa>
6.7

>  <protonation_pKa_method>
experiment

>  <experiment_pH>
7.8

>  <protonated_energy_kcalmol>
122.181981

>  <deprotonated_energy_kcalmol>
28.953583

>  <deltaG_kcalmol>
-6.04

>  <charge>
2

$$$$
