3EHX
 OpenBabel11252210453D

 45 46  0  0  1  0  0  0  0  0999 V2000
    4.7460   24.2560    4.7480 C   0  0  0  0  0  0  0  0  0  0  0  0
    8.3870   26.1890    1.5670 N   0  0  0  0  0  0  0  0  0  0  0  0
    9.5880   26.0780    3.9160 O   0  0  0  0  0  0  0  0  0  0  0  0
    8.3790   26.5470    3.2580 S   0  0  0  0  0  0  0  0  0  0  0  0
    3.5850   23.5740    5.3660 C   0  0  0  0  0  0  0  0  0  0  0  0
    8.1280   27.9860    3.3120 O   0  0  0  0  0  0  0  0  0  0  0  0
    5.9780   23.5970    4.5580 C   0  0  0  0  0  0  0  0  0  0  0  0
    6.7850   24.4300   -0.0550 O   0  0  0  0  0  0  0  0  0  0  0  0
    4.6540   25.6070    4.3680 C   0  0  0  0  0  0  0  0  0  0  0  0
    7.6500   22.8130    1.0160 O   0  0  0  0  0  0  0  0  0  0  0  0
    7.0960   24.2880    4.0910 C   0  0  0  0  0  0  0  0  0  0  0  0
    5.7710   26.3000    3.9020 C   0  0  0  0  0  0  0  0  0  0  0  0
    7.0050   25.6520    3.7850 C   0  0  0  0  0  0  0  0  0  0  0  0
    3.7700   22.4310    6.1650 C   0  0  0  0  0  0  0  0  0  0  0  0
    2.2780   24.0690    5.2000 C   0  0  0  0  0  0  0  0  0  0  0  0
    2.6830   21.8090    6.7850 C   0  0  0  0  0  0  0  0  0  0  0  0
    1.3950   22.3310    6.6400 C   0  0  0  0  0  0  0  0  0  0  0  0
    1.1970   23.4630    5.8440 C   0  0  0  0  0  0  0  0  0  0  0  0
   10.2050   27.4240   -1.3140 C   0  0  0  0  0  0  0  0  0  0  0  0
   10.7320   26.4020   -0.2940 C   0  0  0  0  0  0  0  0  0  0  0  0
    7.7610   24.1130    0.6000 C   0  0  0  0  0  0  0  0  0  0  0  0
    9.8540   25.1270   -0.2540 C   0  0  0  0  0  0  0  0  0  0  0  0
    8.9740   24.9620    1.0110 C   0  0  1  0  0  0  0  0  0  0  0  0
   12.1920   26.0410   -0.6120 C   0  0  0  0  0  0  0  0  0  0  0  0
    8.3830   26.9800    0.9010 H   0  0  0  0  0  0  0  0  0  0  0  0
    6.0770   22.5300    4.7660 H   0  0  0  0  0  0  0  0  0  0  0  0
    3.7010   26.1350    4.4270 H   0  0  0  0  0  0  0  0  0  0  0  0
    8.0410   23.7410    3.9720 H   0  0  0  0  0  0  0  0  0  0  0  0
    5.6620   27.3600    3.6380 H   0  0  0  0  0  0  0  0  0  0  0  0
    4.7670   22.0230    6.3250 H   0  0  0  0  0  0  0  0  0  0  0  0
    2.0760   24.9300    4.5620 H   0  0  0  0  0  0  0  0  0  0  0  0
    2.8400   20.9080    7.3780 H   0  0  0  0  0  0  0  0  0  0  0  0
    0.5470   21.8560    7.1360 H   0  0  0  0  0  0  0  0  0  0  0  0
    0.1900   23.8650    5.7070 H   0  0  0  0  0  0  0  0  0  0  0  0
   10.7950   28.3660   -1.2370 H   0  0  0  0  0  0  0  0  0  0  0  0
    9.1350   27.6620   -1.1390 H   0  0  0  0  0  0  0  0  0  0  0  0
   10.3170   27.0300   -2.3500 H   0  0  0  0  0  0  0  0  0  0  0  0
   10.7180   26.8640    0.7190 H   0  0  0  0  0  0  0  0  0  0  0  0
   10.5290   24.2350   -0.2810 H   0  0  0  0  0  0  0  0  0  0  0  0
    9.2340   25.1080   -1.1810 H   0  0  0  0  0  0  0  0  0  0  0  0
    9.5690   24.4130    1.7950 H   0  0  0  0  0  0  0  0  0  0  0  0
   12.2730   25.5160   -1.5880 H   0  0  0  0  0  0  0  0  0  0  0  0
   12.5870   25.3840    0.1920 H   0  0  0  0  0  0  0  0  0  0  0  0
   12.8140   26.9620   -0.6550 H   0  0  0  0  0  0  0  0  0  0  0  0
    8.4510   22.3760    1.5620 H   0  0  0  0  0  0  0  0  0  0  0  0
  1  5  1  0  0  0  0
  1  7  2  0  0  0  0
  1  9  1  0  0  0  0
  2  4  1  0  0  0  0
  2 23  1  0  0  0  0
  2 25  1  0  0  0  0
  3  4  2  0  0  0  0
  4  6  2  0  0  0  0
  4 13  1  0  0  0  0
  5 14  2  0  0  0  0
  5 15  1  0  0  0  0
  7 11  1  0  0  0  0
  7 26  1  0  0  0  0
  8 21  2  0  0  0  0
  9 12  2  0  0  0  0
  9 27  1  0  0  0  0
 10 21  1  0  0  0  0
 10 45  1  0  0  0  0
 11 13  2  0  0  0  0
 11 28  1  0  0  0  0
 12 13  1  0  0  0  0
 12 29  1  0  0  0  0
 14 16  1  0  0  0  0
 14 30  1  0  0  0  0
 15 18  2  0  0  0  0
 15 31  1  0  0  0  0
 16 17  2  0  0  0  0
 16 32  1  0  0  0  0
 17 18  1  0  0  0  0
 17 33  1  0  0  0  0
 18 34  1  0  0  0  0
 19 20  1  0  0  0  0
 19 35  1  0  0  0  0
 19 36  1  0  0  0  0
 19 37  1  0  0  0  0
 20 22  1  0  0  0  0
 20 24  1  0  0  0  0
 20 38  1  0  0  0  0
 21 23  1  0  0  0  0
 22 23  1  0  0  0  0
 22 39  1  0  0  0  0
 22 40  1  0  0  0  0
 23 41  1  1  0  0  0
 24 42  1  0  0  0  0
 24 43  1  0  0  0  0
 24 44  1  0  0  0  0
M  END
>  <lm5_entropy_jk>
38.87358454694946

>  <number_of_rotatable_bonds>
7

>  <deltaG_kcalmol>
-10.38

>  <charge>
0

>  <protonation_change>
deprotonated_in_solution

>  <protonation_site>
45

>  <protonation_pKa>
2.36

>  <experiment_pH>
7.2

>  <protonation_pKa_method>
pKa of leucine

>  <protonated_energy_kcalmol>
-154.393863

>  <deprotonated_energy_kcalmol>
-245.115034

$$$$
