6T0M
 OpenBabel11252210453D

 56 58  0  0  1  0  0  0  0  0999 V2000
   -1.0700   20.4500   15.8070 N   0  3  0  0  0  0  0  0  0  0  0  0
    0.1670   20.8110   16.6520 C   0  0  1  0  0  0  0  0  0  0  0  0
   -0.6830   18.0880   20.5720 O   0  0  0  0  0  0  0  0  0  0  0  0
    0.6210   19.5670   17.4560 C   0  0  0  0  0  0  0  0  0  0  0  0
    0.9620   19.7450   18.7720 N   0  0  0  0  0  0  0  0  0  0  0  0
    0.6740   18.4590   16.9200 O   0  0  0  0  0  0  0  0  0  0  0  0
    1.5020   18.6260   19.6060 C   0  0  2  0  0  0  0  0  0  0  0  0
    0.4710   16.3880   19.5400 N   0  0  0  0  0  0  0  0  0  0  0  0
    0.3100   17.7040   19.9780 C   0  0  0  0  0  0  0  0  0  0  0  0
   -2.1000   13.4290   15.1930 N   0  0  0  0  0  0  0  0  0  0  0  0
   -0.6020   15.3760   19.5560 C   0  0  0  0  0  0  0  0  0  0  0  0
   -2.6950   15.6700   15.7790 N   0  3  0  0  0  0  0  0  0  0  0  0
   -1.3560   15.4240   18.2410 C   0  0  0  0  0  0  0  0  0  0  0  0
   -3.2170   17.9910   16.2560 N   0  0  0  0  0  0  0  0  0  0  0  0
   -1.3960   14.3560   17.3550 C   0  0  0  0  0  0  0  0  0  0  0  0
   -2.0740   14.4520   16.1080 C   0  0  0  0  0  0  0  0  0  0  0  0
   -2.6590   16.7620   16.6770 C   0  0  0  0  0  0  0  0  0  0  0  0
   -2.0420   16.6180   17.9050 C   0  0  0  0  0  0  0  0  0  0  0  0
    2.1030   19.3000   20.8540 C   0  0  0  0  0  0  0  0  0  0  0  0
    1.5370   20.7320   20.9120 C   0  0  0  0  0  0  0  0  0  0  0  0
    0.9570   21.0460   19.5210 C   0  0  0  0  0  0  0  0  0  0  0  0
    1.2890   21.2840   15.7010 C   0  0  0  0  0  0  0  0  0  0  0  0
    2.3870   22.0210   16.4270 C   0  0  0  0  0  0  0  0  0  0  0  0
    2.1220   23.2860   16.9780 C   0  0  0  0  0  0  0  0  0  0  0  0
    3.1380   24.0010   17.6140 C   0  0  0  0  0  0  0  0  0  0  0  0
    4.4290   23.4640   17.6920 C   0  0  0  0  0  0  0  0  0  0  0  0
    4.6970   22.2110   17.1330 C   0  0  0  0  0  0  0  0  0  0  0  0
    3.6780   21.4840   16.5060 C   0  0  0  0  0  0  0  0  0  0  0  0
   -1.4760   21.3430   15.3840 H   0  0  0  0  0  0  0  0  0  0  0  0
   -1.8240   19.9900   16.3940 H   0  0  0  0  0  0  0  0  0  0  0  0
   -0.8010   19.7790   15.0200 H   0  0  0  0  0  0  0  0  0  0  0  0
   -0.1650   21.6630   17.3160 H   0  0  0  0  0  0  0  0  0  0  0  0
    2.2850   18.0720   19.0200 H   0  0  0  0  0  0  0  0  0  0  0  0
    1.4050   16.0430   19.2640 H   0  0  0  0  0  0  0  0  0  0  0  0
   -2.7820   13.4110   14.3950 H   0  0  0  0  0  0  0  0  0  0  0  0
   -1.8380   12.4800   15.5480 H   0  0  0  0  0  0  0  0  0  0  0  0
   -0.1480   14.3610   19.7350 H   0  0  0  0  0  0  0  0  0  0  0  0
   -1.3200   15.5780   20.4080 H   0  0  0  0  0  0  0  0  0  0  0  0
   -3.7170   17.9660   15.3450 H   0  0  0  0  0  0  0  0  0  0  0  0
   -3.7700   18.4830   16.9890 H   0  0  0  0  0  0  0  0  0  0  0  0
    3.2180   19.3290   20.7580 H   0  0  0  0  0  0  0  0  0  0  0  0
    1.8300   18.7440   21.7760 H   0  0  0  0  0  0  0  0  0  0  0  0
    0.7350   20.8150   21.6850 H   0  0  0  0  0  0  0  0  0  0  0  0
    2.3420   21.4660   21.1660 H   0  0  0  0  0  0  0  0  0  0  0  0
   -0.0940   21.4320   19.5920 H   0  0  0  0  0  0  0  0  0  0  0  0
    1.5980   21.7910   18.9790 H   0  0  0  0  0  0  0  0  0  0  0  0
    0.8400   21.9920   14.9450 H   0  0  0  0  0  0  0  0  0  0  0  0
    1.7000   20.4080   15.1380 H   0  0  0  0  0  0  0  0  0  0  0  0
    1.1160   23.7100   16.9000 H   0  0  0  0  0  0  0  0  0  0  0  0
    2.9110   24.9810   18.0500 H   0  0  0  0  0  0  0  0  0  0  0  0
    5.2260   24.0290   18.1920 H   0  0  0  0  0  0  0  0  0  0  0  0
    5.7070   21.7920   17.1790 H   0  0  0  0  0  0  0  0  0  0  0  0
    3.8900   20.5050   16.0720 H   0  0  0  0  0  0  0  0  0  0  0  0
   -3.1240   15.8320   14.8400 H   0  0  0  0  0  0  0  0  0  0  0  0
   -0.8950   13.4050   17.5910 H   0  0  0  0  0  0  0  0  0  0  0  0
   -2.0550   17.4750   18.5920 H   0  0  0  0  0  0  0  0  0  0  0  0
  1  2  1  0  0  0  0
  1 29  1  0  0  0  0
  1 30  1  0  0  0  0
  1 31  1  0  0  0  0
  2  4  1  0  0  0  0
  2 22  1  0  0  0  0
  2 32  1  1  0  0  0
  3  9  2  0  0  0  0
  4  5  1  0  0  0  0
  4  6  2  0  0  0  0
  5  7  1  0  0  0  0
  5 21  1  0  0  0  0
  7  9  1  0  0  0  0
  7 19  1  0  0  0  0
  7 33  1  6  0  0  0
  8  9  1  0  0  0  0
  8 11  1  0  0  0  0
  8 34  1  0  0  0  0
 10 16  1  0  0  0  0
 10 35  1  0  0  0  0
 10 36  1  0  0  0  0
 11 13  1  0  0  0  0
 11 37  1  0  0  0  0
 11 38  1  0  0  0  0
 12 16  2  0  0  0  0
 12 17  1  0  0  0  0
 12 54  1  0  0  0  0
 13 15  2  0  0  0  0
 13 18  1  0  0  0  0
 14 17  1  0  0  0  0
 14 39  1  0  0  0  0
 14 40  1  0  0  0  0
 15 16  1  0  0  0  0
 15 55  1  0  0  0  0
 17 18  2  0  0  0  0
 18 56  1  0  0  0  0
 19 20  1  0  0  0  0
 19 41  1  0  0  0  0
 19 42  1  0  0  0  0
 20 21  1  0  0  0  0
 20 43  1  0  0  0  0
 20 44  1  0  0  0  0
 21 45  1  0  0  0  0
 21 46  1  0  0  0  0
 22 23  1  0  0  0  0
 22 47  1  0  0  0  0
 22 48  1  0  0  0  0
 23 24  2  0  0  0  0
 23 28  1  0  0  0  0
 24 25  1  0  0  0  0
 24 49  1  0  0  0  0
 25 26  2  0  0  0  0
 25 50  1  0  0  0  0
 26 27  1  0  0  0  0
 26 51  1  0  0  0  0
 27 28  2  0  0  0  0
 27 52  1  0  0  0  0
 28 53  1  0  0  0  0
M  CHG  2   1   1  12   1
M  END
>  <number_of_rotatable_bonds>
8

>  <lm5_entropy_jk>
21.57145520137845

>  <protonation_change>
deprotonated_in_solution

>  <protonation_site>
54

>  <protonation_pKa>
6.4

>  <protonation_pKa_method>
experiment

>  <experiment_pH>
7.8

>  <protonated_energy_kcalmol>
116.491059

>  <deprotonated_energy_kcalmol>
22.556134

>  <deltaG_kcalmol>
-5.69

>  <charge>
2

$$$$
