3PVG
 OpenBabel11252210453D

 21 22  0  0  1  0  0  0  0  0999 V2000
   21.8190    7.2680   20.9750 C   0  0  0  0  0  0  0  0  0  0  0  0
   22.6940    6.5920   20.1100 C   0  0  0  0  0  0  0  0  0  0  0  0
   23.0290    7.1300   18.8140 C   0  0  0  0  0  0  0  0  0  0  0  0
   22.3680    8.2870   18.3610 C   0  0  0  0  0  0  0  0  0  0  0  0
   21.4350    8.8910   19.1960 C   0  0  0  0  0  0  0  0  0  0  0  0
   21.1910    8.4130   20.5150 C   0  0  0  0  0  0  0  0  0  0  0  0
   23.3810    5.3950   20.3450 N   0  0  0  0  0  0  0  0  0  0  0  0
   24.1460    5.1950   19.2620 C   0  0  0  0  0  0  0  0  0  0  0  0
   23.9740    6.2320   18.2860 N   0  0  0  0  0  0  0  0  0  0  0  0
   24.8890    6.4900   17.1680 C   0  0  0  0  0  0  0  0  0  0  0  0
   25.1690    5.2960   16.2730 C   0  0  0  0  0  0  0  0  0  0  0  0
   25.5320    5.3560   15.1200 O   0  0  0  0  0  0  0  0  0  0  0  0
   25.0260    4.1030   16.9180 O   0  0  0  0  0  0  0  0  0  0  0  0
   21.6450    6.5190   22.6940 Br  0  0  0  0  0  0  0  0  0  0  0  0
   20.0200    9.3520   21.6670 Br  0  0  0  0  0  0  0  0  0  0  0  0
   20.4890   10.4130   18.5570 Br  0  0  0  0  0  0  0  0  0  0  0  0
   22.7690    9.0120   16.6570 Br  0  0  0  0  0  0  0  0  0  0  0  0
   24.8110    4.3440   19.0790 H   0  0  0  0  0  0  0  0  0  0  0  0
   25.2160    3.2790   16.2830 H   0  0  0  0  0  0  0  0  0  0  0  0
   25.8830    6.8590   17.5690 H   0  0  0  0  0  0  0  0  0  0  0  0
   24.4710    7.3180   16.5000 H   0  0  0  0  0  0  0  0  0  0  0  0
  1  2  2  0  0  0  0
  1  6  1  0  0  0  0
  1 14  1  0  0  0  0
  2  3  1  0  0  0  0
  2  7  1  0  0  0  0
  3  4  2  0  0  0  0
  3  9  1  0  0  0  0
  4  5  1  0  0  0  0
  4 17  1  0  0  0  0
  5  6  2  0  0  0  0
  5 16  1  0  0  0  0
  6 15  1  0  0  0  0
  7  8  2  0  0  0  0
  8  9  1  0  0  0  0
  8 18  1  0  0  0  0
  9 10  1  0  0  0  0
 10 11  1  0  0  0  0
 10 20  1  0  0  0  0
 10 21  1  0  0  0  0
 11 12  2  0  0  0  0
 11 13  1  0  0  0  0
 13 19  1  0  0  0  0
M  END
>  <Ki_NM>
1340

>  <charge>
0

>  <number_of_rotatable_bonds>
2

>  <lm5_entropy_jk>
18.17250520339831

>  <penalty_kcalmol>
15.96

>  <protonation_change>
deprotonated_in_solution

>  <protonation_site>
19

>  <protonation_pKa>
3.325

>  <protonation_pKa_method>
stardrop

>  <experiment_pH>
7.4

>  <protonated_energy_kcalmol>
-31.325

>  <deprotonated_energy_kcalmol>
-128.689

$$$$
