5HVP_align_H.pdb
 OpenBabel11252210453D

102101  0  0  1  0  0  0  0  0999 V2000
    7.8420   -8.6390   19.2700 N   0  0  0  0  0  0  0  0  0  0  0  0
    7.1240   -5.9950   16.8820 N   0  0  0  0  0  0  0  0  0  0  0  0
    6.1230   -2.7340   16.2050 N   0  0  0  0  0  0  0  0  0  0  0  0
    4.4030    1.2080   13.0670 N   0  0  0  0  0  0  0  0  0  0  0  0
    4.1010    2.9170   10.2200 N   0  0  0  0  0  0  0  0  0  0  0  0
    6.9600   -8.0800   18.2270 C   0  0  2  0  0  0  0  0  0  0  0  0
    7.6730   -4.6570   16.5710 C   0  0  2  0  0  0  0  0  0  0  0  0
    4.8060   -2.2210   15.7470 C   0  0  1  0  0  0  0  0  0  0  0  0
    3.4160    1.3260   11.9710 C   0  0  2  0  0  0  0  0  0  0  0  0
    4.5520    4.2030    9.6310 C   0  0  1  0  0  0  0  0  0  0  0  0
    8.7410   -9.6890   19.0290 C   0  0  0  0  0  0  0  0  0  0  0  0
    7.2460   -6.5560   18.1680 C   0  0  0  0  0  0  0  0  0  0  0  0
    6.6380   -3.9330   15.6750 C   0  0  0  0  0  0  0  0  0  0  0  0
    5.1080    0.0190   13.3190 C   0  0  0  0  0  0  0  0  0  0  0  0
    3.4680    2.7950   11.4560 C   0  0  0  0  0  0  0  0  0  0  0  0
    2.0340    4.3850    6.6640 C   0  0  0  0  0  0  0  0  0  0  0  0
    9.0110  -10.0430   17.8890 O   0  0  0  0  0  0  0  0  0  0  0  0
    7.5510   -5.8770   19.1330 O   0  0  0  0  0  0  0  0  0  0  0  0
    6.3190   -4.2940   14.5550 O   0  0  0  0  0  0  0  0  0  0  0  0
    5.1610   -0.8820   12.4960 O   0  0  0  0  0  0  0  0  0  0  0  0
    2.9590    3.7440   12.0290 O   0  0  0  0  0  0  0  0  0  0  0  0
    1.9950    3.5120    5.8300 O   0  0  0  0  0  0  0  0  0  0  0  0
    5.4630   -8.3770   18.5490 C   0  0  0  0  0  0  0  0  0  0  0  0
    9.0560   -4.7550   15.8610 C   0  0  0  0  0  0  0  0  0  0  0  0
    3.6650   -2.7240   16.6550 C   0  0  0  0  0  0  0  0  0  0  0  0
    1.9890    0.9860   12.4080 C   0  0  0  0  0  0  0  0  0  0  0  0
    6.0910    4.3270    9.6730 C   0  0  0  0  0  0  0  0  0  0  0  0
    3.5120   -4.2600   16.6640 C   0  0  0  0  0  0  0  0  0  0  0  0
    6.6130    5.0780   10.9210 C   0  0  0  0  0  0  0  0  0  0  0  0
    4.5400   -7.6400   17.5740 C   0  0  0  0  0  0  0  0  0  0  0  0
    9.4730   -3.3790   15.3340 C   0  0  0  0  0  0  0  0  0  0  0  0
    5.2000   -9.8890   18.4910 C   0  0  0  0  0  0  0  0  0  0  0  0
   10.1000   -5.3020   16.8440 C   0  0  0  0  0  0  0  0  0  0  0  0
    2.5680   -4.6670   17.8050 C   0  0  0  0  0  0  0  0  0  0  0  0
    6.5430    4.2120   12.1860 C   0  0  0  0  0  0  0  0  0  0  0  0
    3.0240   -4.8090   15.3140 C   0  0  0  0  0  0  0  0  0  0  0  0
    8.0550    5.5570   10.6730 C   0  0  0  0  0  0  0  0  0  0  0  0
    4.8060   -0.6620   15.7120 C   0  0  1  0  0  0  0  0  0  0  0  0
    4.0500    4.2920    8.1510 C   0  0  1  0  0  0  0  0  0  0  0  0
    9.3670  -10.2720   20.2640 C   0  0  0  0  0  0  0  0  0  0  0  0
    5.0590   -0.1290   17.0100 O   0  0  0  0  0  0  0  0  0  0  0  0
    4.5470    3.2180    7.3470 O   0  0  0  0  0  0  0  0  0  0  0  0
    5.7730   -0.0620   14.6750 C   0  0  0  0  0  0  0  0  0  0  0  0
    2.5090    4.3570    8.0830 C   0  0  0  0  0  0  0  0  0  0  0  0
    1.5780    5.6510    6.3620 O   0  0  0  0  0  0  0  0  0  0  0  0
    3.8520   -2.3780   17.7010 H   0  0  0  0  0  0  0  0  0  0  0  0
    7.5260   -8.4490   20.2470 H   0  0  0  0  0  0  0  0  0  0  0  0
    7.0060   -6.6290   16.0680 H   0  0  0  0  0  0  0  0  0  0  0  0
    6.5590    3.3170    9.6280 H   0  0  0  0  0  0  0  0  0  0  0  0
    4.4200    1.9720   13.7680 H   0  0  0  0  0  0  0  0  0  0  0  0
    6.3430   -2.4700   17.1680 H   0  0  0  0  0  0  0  0  0  0  0  0
    7.2180   -8.5490   17.2370 H   0  0  0  0  0  0  0  0  0  0  0  0
    4.4740    2.0760    9.7600 H   0  0  0  0  0  0  0  0  0  0  0  0
    7.8040   -4.0980   17.5330 H   0  0  0  0  0  0  0  0  0  0  0  0
    4.5160   -4.7090   16.8810 H   0  0  0  0  0  0  0  0  0  0  0  0
    3.7130    0.6100   11.1490 H   0  0  0  0  0  0  0  0  0  0  0  0
    4.6180   -2.5830   14.7030 H   0  0  0  0  0  0  0  0  0  0  0  0
    5.2500   -8.0110   19.5860 H   0  0  0  0  0  0  0  0  0  0  0  0
    4.0900    5.0500   10.2120 H   0  0  0  0  0  0  0  0  0  0  0  0
    8.9580   -5.4630   14.9990 H   0  0  0  0  0  0  0  0  0  0  0  0
    5.9700    5.9810   11.0830 H   0  0  0  0  0  0  0  0  0  0  0  0
    1.5970    1.7220   13.1400 H   0  0  0  0  0  0  0  0  0  0  0  0
    2.7040   -2.2660   16.3240 H   0  0  0  0  0  0  0  0  0  0  0  0
    1.3180    0.9840   11.5160 H   0  0  0  0  0  0  0  0  0  0  0  0
    2.3380   -5.7520   17.7500 H   0  0  0  0  0  0  0  0  0  0  0  0
    1.9620   -0.0270   12.8720 H   0  0  0  0  0  0  0  0  0  0  0  0
    3.0590   -4.4610   18.7820 H   0  0  0  0  0  0  0  0  0  0  0  0
    6.4330    4.8910    8.7700 H   0  0  0  0  0  0  0  0  0  0  0  0
    3.4880   -7.9640   17.7290 H   0  0  0  0  0  0  0  0  0  0  0  0
    7.0240    4.7390   13.0360 H   0  0  0  0  0  0  0  0  0  0  0  0
    4.5960   -6.5450   17.7560 H   0  0  0  0  0  0  0  0  0  0  0  0
    5.4850    4.0160   12.4580 H   0  0  0  0  0  0  0  0  0  0  0  0
    4.8260   -7.8460   16.5220 H   0  0  0  0  0  0  0  0  0  0  0  0
    7.0610    3.2430   12.0330 H   0  0  0  0  0  0  0  0  0  0  0  0
   10.5170   -3.4210   14.9530 H   0  0  0  0  0  0  0  0  0  0  0  0
    2.1440   -4.2330   14.9590 H   0  0  0  0  0  0  0  0  0  0  0  0
    8.8070   -3.0540   14.5050 H   0  0  0  0  0  0  0  0  0  0  0  0
    3.8450   -4.7290   14.5720 H   0  0  0  0  0  0  0  0  0  0  0  0
    9.4250   -2.6200   16.1450 H   0  0  0  0  0  0  0  0  0  0  0  0
    2.7330   -5.8750   15.4340 H   0  0  0  0  0  0  0  0  0  0  0  0
    4.1310  -10.0880   18.7320 H   0  0  0  0  0  0  0  0  0  0  0  0
    8.7150    4.6900   10.4560 H   0  0  0  0  0  0  0  0  0  0  0  0
    5.4070  -10.2810   17.4710 H   0  0  0  0  0  0  0  0  0  0  0  0
    8.0870    6.2540    9.8080 H   0  0  0  0  0  0  0  0  0  0  0  0
    5.8340  -10.4300   19.2240 H   0  0  0  0  0  0  0  0  0  0  0  0
    8.4380    6.0860   11.5710 H   0  0  0  0  0  0  0  0  0  0  0  0
   11.0450   -5.5080   16.3040 H   0  0  0  0  0  0  0  0  0  0  0  0
    3.7580   -0.3050   15.5300 H   0  0  0  0  0  0  0  0  0  0  0  0
   10.3060   -4.5620   17.6480 H   0  0  0  0  0  0  0  0  0  0  0  0
    4.4950    5.1950    7.6600 H   0  0  0  0  0  0  0  0  0  0  0  0
    9.7520   -6.2520   17.3020 H   0  0  0  0  0  0  0  0  0  0  0  0
    1.6180   -4.0970   17.7490 H   0  0  0  0  0  0  0  0  0  0  0  0
   10.3470   -9.7710   20.4770 H   0  0  0  0  0  0  0  0  0  0  0  0
    8.7240  -10.1540   21.1720 H   0  0  0  0  0  0  0  0  0  0  0  0
    9.5610  -11.3650   20.1300 H   0  0  0  0  0  0  0  0  0  0  0  0
    6.0520    0.0780   17.1590 H   0  0  0  0  0  0  0  0  0  0  0  0
    4.2540    2.3430    7.7470 H   0  0  0  0  0  0  0  0  0  0  0  0
    6.0980    0.9470   15.0450 H   0  0  0  0  0  0  0  0  0  0  0  0
    6.7070   -0.6780   14.6210 H   0  0  0  0  0  0  0  0  0  0  0  0
    2.0550    3.4810    8.6170 H   0  0  0  0  0  0  0  0  0  0  0  0
    2.1700    5.2890    8.6220 H   0  0  0  0  0  0  0  0  0  0  0  0
    1.2420    5.7710    5.4270 H   0  0  0  0  0  0  0  0  0  0  0  0
  1 11  1  0  0  0  0
  1 47  1  0  0  0  0
  2 12  1  0  0  0  0
  3  8  1  0  0  0  0
  3 51  1  0  0  0  0
  3 13  1  0  0  0  0
  4 14  1  0  0  0  0
  4 50  1  0  0  0  0
  5 10  1  0  0  0  0
  5 53  1  0  0  0  0
  5 15  1  0  0  0  0
  6 52  1  6  0  0  0
  6 12  1  0  0  0  0
  6 23  1  0  0  0  0
  6  1  1  0  0  0  0
  7  2  1  0  0  0  0
  7 54  1  1  0  0  0
  8 25  1  0  0  0  0
  8 38  1  0  0  0  0
  8 57  1  6  0  0  0
  9 56  1  6  0  0  0
  9  4  1  0  0  0  0
 10 27  1  0  0  0  0
 10 39  1  0  0  0  0
 10 59  1  1  0  0  0
 11 17  2  0  0  0  0
 11 40  1  0  0  0  0
 12 18  2  0  0  0  0
 13  7  1  0  0  0  0
 14 20  2  0  0  0  0
 14 43  1  0  0  0  0
 15  9  1  0  0  0  0
 15 21  2  0  0  0  0
 16 22  2  0  0  0  0
 16 44  1  0  0  0  0
 16 45  1  0  0  0  0
 19 13  2  0  0  0  0
 23 58  1  0  0  0  0
 24  7  1  0  0  0  0
 24 33  1  0  0  0  0
 25 28  1  0  0  0  0
 25 46  1  0  0  0  0
 25 63  1  0  0  0  0
 26  9  1  0  0  0  0
 26 66  1  0  0  0  0
 27 29  1  0  0  0  0
 27 49  1  0  0  0  0
 27 68  1  0  0  0  0
 28 34  1  0  0  0  0
 28 36  1  0  0  0  0
 28 55  1  0  0  0  0
 29 35  1  0  0  0  0
 29 37  1  0  0  0  0
 29 61  1  0  0  0  0
 30 71  1  0  0  0  0
 30 69  1  0  0  0  0
 30 23  1  0  0  0  0
 31 24  1  0  0  0  0
 31 79  1  0  0  0  0
 32 23  1  0  0  0  0
 32 85  1  0  0  0  0
 33 89  1  0  0  0  0
 34 65  1  0  0  0  0
 34 67  1  0  0  0  0
 34 92  1  0  0  0  0
 35 70  1  0  0  0  0
 35 72  1  0  0  0  0
 35 74  1  0  0  0  0
 36 76  1  0  0  0  0
 36 78  1  0  0  0  0
 36 80  1  0  0  0  0
 37 82  1  0  0  0  0
 37 84  1  0  0  0  0
 37 86  1  0  0  0  0
 38 41  1  0  0  0  0
 38 43  1  0  0  0  0
 38 88  1  1  0  0  0
 39 42  1  0  0  0  0
 39 44  1  0  0  0  0
 39 90  1  6  0  0  0
 40 93  1  0  0  0  0
 40 94  1  0  0  0  0
 40 95  1  0  0  0  0
 41 96  1  0  0  0  0
 42 97  1  0  0  0  0
 43 98  1  0  0  0  0
 43 99  1  0  0  0  0
 44100  1  0  0  0  0
 44101  1  0  0  0  0
 45102  1  0  0  0  0
 48  2  1  0  0  0  0
 60 24  1  0  0  0  0
 62 26  1  0  0  0  0
 64 26  1  0  0  0  0
 73 30  1  0  0  0  0
 75 31  1  0  0  0  0
 77 31  1  0  0  0  0
 81 32  1  0  0  0  0
 83 32  1  0  0  0  0
 87 33  1  0  0  0  0
 91 33  1  0  0  0  0
M  END
>  <penalty_kcalmol>
13.80

>  <protonation_change>
deprotonated_in_solution

>  <protonation_site>
102

>  <protonation_pKa>
4.2

>  <protonation_pKa_method>
stardrop

>  <experiment_pH>
4.7

>  <protonated_energy_kcalmol>
-519.589

>  <deprotonated_energy_kcalmol>
-619.155

>  <charge>
0

>  <KI_NM>
116

>  <number_of_rotatable_bonds>
25

>  <lm5_entropy_jk>
57.88760377023577

>  <ligand_crystal_conformation>
A

$$$$
