3EHX
 OpenBabel11252210453D

 45 46  0  0  1  0  0  0  0  0999 V2000
    4.9370   24.3780    4.6820 C   0  0  0  0  0  0  0  0  0  0  0  0
    8.4440   26.7720    1.6060 N   0  0  0  0  0  0  0  0  0  0  0  0
    9.7330   26.1680    3.6560 O   0  0  0  0  0  0  0  0  0  0  0  0
    8.5120   26.8720    3.2490 S   0  0  0  0  0  0  0  0  0  0  0  0
    3.7960   23.6210    5.3190 C   0  0  0  0  0  0  0  0  0  0  0  0
    8.2610   28.2770    3.5620 O   0  0  0  0  0  0  0  0  0  0  0  0
    6.2050   23.7860    4.4690 C   0  0  0  0  0  0  0  0  0  0  0  0
    6.9530   24.3650    0.3520 O   0  0  0  0  0  0  0  0  0  0  0  0
    4.7980   25.7390    4.3270 C   0  0  0  0  0  0  0  0  0  0  0  0
    8.8590   23.2830    0.3180 O   0  0  0  0  0  0  0  0  0  0  0  0
    7.2980   24.5210    3.9910 C   0  0  0  0  0  0  0  0  0  0  0  0
    5.8680   26.4990    3.8460 C   0  0  0  0  0  0  0  0  0  0  0  0
    7.1210   25.8840    3.6840 C   0  0  0  0  0  0  0  0  0  0  0  0
    4.0350   22.5000    6.1560 C   0  0  0  0  0  0  0  0  0  0  0  0
    2.4440   24.0250    5.1520 C   0  0  0  0  0  0  0  0  0  0  0  0
    2.9800   21.8180    6.7870 C   0  0  0  0  0  0  0  0  0  0  0  0
    1.6590   22.2480    6.6100 C   0  0  0  0  0  0  0  0  0  0  0  0
    1.3920   23.3550    5.7960 C   0  0  0  0  0  0  0  0  0  0  0  0
   10.2370   28.5220   -0.8350 C   0  0  0  0  0  0  0  0  0  0  0  0
   10.6640   27.0770   -0.6030 C   0  0  0  0  0  0  0  0  0  0  0  0
    8.1320   24.3200    0.7190 C   0  0  0  0  0  0  0  0  0  0  0  0
    9.4260   26.1590   -0.5920 C   0  0  0  0  0  0  0  0  0  0  0  0
    9.0330   25.6130    0.8230 C   0  0  1  0  0  0  0  0  0  0  0  0
   11.5890   26.7020   -1.7540 C   0  0  0  0  0  0  0  0  0  0  0  0
    7.4350   26.6900    1.6710 H   0  0  0  0  0  0  0  0  0  0  0  0
    6.3490   22.7330    4.6820 H   0  0  0  0  0  0  0  0  0  0  0  0
    3.8440   26.2290    4.4680 H   0  0  0  0  0  0  0  0  0  0  0  0
    8.2730   24.0270    3.8910 H   0  0  0  0  0  0  0  0  0  0  0  0
    5.7170   27.5650    3.6440 H   0  0  0  0  0  0  0  0  0  0  0  0
    5.0510   22.1730    6.3460 H   0  0  0  0  0  0  0  0  0  0  0  0
    2.1930   24.8580    4.5050 H   0  0  0  0  0  0  0  0  0  0  0  0
    3.1860   20.9580    7.4190 H   0  0  0  0  0  0  0  0  0  0  0  0
    0.8400   21.7220    7.0990 H   0  0  0  0  0  0  0  0  0  0  0  0
    0.3630   23.6820    5.6430 H   0  0  0  0  0  0  0  0  0  0  0  0
   11.0970   29.2020   -0.8080 H   0  0  0  0  0  0  0  0  0  0  0  0
    9.5350   28.8430   -0.0560 H   0  0  0  0  0  0  0  0  0  0  0  0
    9.7400   28.6490   -1.8050 H   0  0  0  0  0  0  0  0  0  0  0  0
   11.2160   26.9890    0.3470 H   0  0  0  0  0  0  0  0  0  0  0  0
    9.6200   25.3080   -1.2610 H   0  0  0  0  0  0  0  0  0  0  0  0
    8.5710   26.6810   -1.0410 H   0  0  0  0  0  0  0  0  0  0  0  0
    9.9650   25.2450    1.2960 H   0  0  0  0  0  0  0  0  0  0  0  0
   11.0740   26.7530   -2.7230 H   0  0  0  0  0  0  0  0  0  0  0  0
   11.9870   25.6880   -1.6350 H   0  0  0  0  0  0  0  0  0  0  0  0
   12.4520   27.3790   -1.8050 H   0  0  0  0  0  0  0  0  0  0  0  0
    8.7840   22.6040    1.0470 H   0  0  0  0  0  0  0  0  0  0  0  0
  1  5  1  0  0  0  0
  1  7  2  0  0  0  0
  1  9  1  0  0  0  0
  2  4  1  0  0  0  0
  2 23  1  0  0  0  0
  2 25  1  0  0  0  0
  3  4  2  0  0  0  0
  4  6  2  0  0  0  0
  4 13  1  0  0  0  0
  5 14  2  0  0  0  0
  5 15  1  0  0  0  0
  7 11  1  0  0  0  0
  7 26  1  0  0  0  0
  8 21  2  0  0  0  0
  9 12  2  0  0  0  0
  9 27  1  0  0  0  0
 10 21  1  0  0  0  0
 10 45  1  0  0  0  0
 11 13  2  0  0  0  0
 11 28  1  0  0  0  0
 12 13  1  0  0  0  0
 12 29  1  0  0  0  0
 14 16  1  0  0  0  0
 14 30  1  0  0  0  0
 15 18  2  0  0  0  0
 15 31  1  0  0  0  0
 16 17  2  0  0  0  0
 16 32  1  0  0  0  0
 17 18  1  0  0  0  0
 17 33  1  0  0  0  0
 18 34  1  0  0  0  0
 19 20  1  0  0  0  0
 19 35  1  0  0  0  0
 19 36  1  0  0  0  0
 19 37  1  0  0  0  0
 20 22  1  0  0  0  0
 20 24  1  0  0  0  0
 20 38  1  0  0  0  0
 21 23  1  0  0  0  0
 22 23  1  0  0  0  0
 22 39  1  0  0  0  0
 22 40  1  0  0  0  0
 23 41  1  1  0  0  0
 24 42  1  0  0  0  0
 24 43  1  0  0  0  0
 24 44  1  0  0  0  0
M  END
>  <lm5_entropy_jk>
38.87358454694946

>  <number_of_rotatable_bonds>
7

>  <deltaG_kcalmol>
-10.38

>  <charge>
0

>  <protonation_change>
deprotonated_in_solution

>  <protonation_site>
45

>  <protonation_pKa>
2.36

>  <experiment_pH>
7.2

>  <protonation_pKa_method>
pKa of leucine

>  <protonated_energy_kcalmol>
-154.393863

>  <deprotonated_energy_kcalmol>
-245.115034

$$$$
