6T0P
 OpenBabel11252210453D

 54 56  0  0  1  0  0  0  0  0999 V2000
   -0.5830   22.8130   16.9640 N   0  3  0  0  0  0  0  0  0  0  0  0
    0.9170   22.7360   17.3290 C   0  0  2  0  0  0  0  0  0  0  0  0
   -0.3700   19.1260   19.1730 O   0  0  0  0  0  0  0  0  0  0  0  0
    1.8010   23.5310   16.3070 C   0  0  0  0  0  0  0  0  0  0  0  0
    1.8280   20.8500   18.7010 N   0  0  0  0  0  0  0  0  0  0  0  0
    1.1780   20.4730   16.5410 O   0  0  0  0  0  0  0  0  0  0  0  0
    3.2550   23.5800   16.7300 C   0  0  0  0  0  0  0  0  0  0  0  0
    0.8950   17.2330   19.2050 N   0  0  0  0  0  0  0  0  0  0  0  0
    4.1760   22.6560   16.2120 C   0  0  0  0  0  0  0  0  0  0  0  0
   -2.5980   15.3970   15.9100 N   0  3  0  0  0  0  0  0  0  0  0  0
    5.5210   22.6950   16.6130 C   0  0  0  0  0  0  0  0  0  0  0  0
   -1.6040   13.2640   15.7250 N   0  0  0  0  0  0  0  0  0  0  0  0
    5.9440   23.6580   17.5440 C   0  0  0  0  0  0  0  0  0  0  0  0
    5.0270   24.5890   18.0620 C   0  0  0  0  0  0  0  0  0  0  0  0
    3.6840   24.5490   17.6500 C   0  0  0  0  0  0  0  0  0  0  0  0
    1.3500   21.2610   17.4570 C   0  0  0  0  0  0  0  0  0  0  0  0
    2.0560   19.4200   19.0220 C   0  0  2  0  0  0  0  0  0  0  0  0
    0.7340   18.6070   19.1210 C   0  0  0  0  0  0  0  0  0  0  0  0
   -0.2210   16.2510   19.4230 C   0  0  0  0  0  0  0  0  0  0  0  0
   -1.0560   15.9370   18.1910 C   0  0  0  0  0  0  0  0  0  0  0  0
   -2.0300   16.8330   17.7610 C   0  0  0  0  0  0  0  0  0  0  0  0
   -2.8020   16.5750   16.6260 C   0  0  0  0  0  0  0  0  0  0  0  0
   -1.7050   14.4580   16.3810 C   0  0  0  0  0  0  0  0  0  0  0  0
   -0.9110   14.7330   17.4940 C   0  0  0  0  0  0  0  0  0  0  0  0
    2.8940   19.3990   20.3300 C   0  0  0  0  0  0  0  0  0  0  0  0
    3.4220   20.8440   20.4990 C   0  0  0  0  0  0  0  0  0  0  0  0
    2.4180   21.7220   19.7360 C   0  0  0  0  0  0  0  0  0  0  0  0
   -0.9350   23.7790   16.8960 H   0  0  0  0  0  0  0  0  0  0  0  0
   -1.1820   22.3310   17.6500 H   0  0  0  0  0  0  0  0  0  0  0  0
   -0.7750   22.3670   16.0560 H   0  0  0  0  0  0  0  0  0  0  0  0
    1.0460   23.1530   18.3340 H   0  0  0  0  0  0  0  0  0  0  0  0
    1.4310   24.5600   16.1780 H   0  0  0  0  0  0  0  0  0  0  0  0
    1.7250   23.0800   15.3050 H   0  0  0  0  0  0  0  0  0  0  0  0
    1.8530   16.8880   19.2440 H   0  0  0  0  0  0  0  0  0  0  0  0
    3.8470   21.9020   15.4990 H   0  0  0  0  0  0  0  0  0  0  0  0
    6.2340   21.9790   16.2020 H   0  0  0  0  0  0  0  0  0  0  0  0
   -2.3710   12.9470   15.1430 H   0  0  0  0  0  0  0  0  0  0  0  0
   -0.9600   12.5620   16.0890 H   0  0  0  0  0  0  0  0  0  0  0  0
    6.9860   23.6850   17.8620 H   0  0  0  0  0  0  0  0  0  0  0  0
    5.3560   25.3410   18.7810 H   0  0  0  0  0  0  0  0  0  0  0  0
    2.9740   25.2710   18.0500 H   0  0  0  0  0  0  0  0  0  0  0  0
    2.6210   18.9780   18.1930 H   0  0  0  0  0  0  0  0  0  0  0  0
    0.1830   15.3100   19.8240 H   0  0  0  0  0  0  0  0  0  0  0  0
   -0.8890   16.6230   20.2130 H   0  0  0  0  0  0  0  0  0  0  0  0
    3.7000   18.6500   20.2990 H   0  0  0  0  0  0  0  0  0  0  0  0
    2.2400   19.1440   21.1790 H   0  0  0  0  0  0  0  0  0  0  0  0
    3.5210   21.1500   21.5540 H   0  0  0  0  0  0  0  0  0  0  0  0
    4.4080   20.9640   20.0310 H   0  0  0  0  0  0  0  0  0  0  0  0
    1.6280   22.0820   20.4160 H   0  0  0  0  0  0  0  0  0  0  0  0
    2.9290   22.5920   19.2910 H   0  0  0  0  0  0  0  0  0  0  0  0
   -3.5500   17.2900   16.2610 H   0  0  0  0  0  0  0  0  0  0  0  0
   -2.1820   17.7630   18.3010 H   0  0  0  0  0  0  0  0  0  0  0  0
   -0.2030   13.9890   17.8400 H   0  0  0  0  0  0  0  0  0  0  0  0
   -3.0420   15.2870   15.0070 H   0  0  0  0  0  0  0  0  0  0  0  0
  1  2  1  0  0  0  0
  1 28  1  0  0  0  0
  1 29  1  0  0  0  0
  1 30  1  0  0  0  0
  2  4  1  0  0  0  0
  2 16  1  0  0  0  0
  2 31  1  1  0  0  0
  3 18  2  0  0  0  0
  4  7  1  0  0  0  0
  4 32  1  0  0  0  0
  4 33  1  0  0  0  0
  5 16  1  0  0  0  0
  5 17  1  0  0  0  0
  5 27  1  0  0  0  0
  6 16  2  0  0  0  0
  7  9  2  0  0  0  0
  7 15  1  0  0  0  0
  8 18  1  0  0  0  0
  8 19  1  0  0  0  0
  8 34  1  0  0  0  0
  9 11  1  0  0  0  0
  9 35  1  0  0  0  0
 10 22  2  0  0  0  0
 10 23  1  0  0  0  0
 10 54  1  0  0  0  0
 11 13  2  0  0  0  0
 11 36  1  0  0  0  0
 12 23  1  0  0  0  0
 12 37  1  0  0  0  0
 12 38  1  0  0  0  0
 13 14  1  0  0  0  0
 13 39  1  0  0  0  0
 14 15  2  0  0  0  0
 14 40  1  0  0  0  0
 15 41  1  0  0  0  0
 17 18  1  0  0  0  0
 17 25  1  0  0  0  0
 17 42  1  6  0  0  0
 19 20  1  0  0  0  0
 19 43  1  0  0  0  0
 19 44  1  0  0  0  0
 20 21  2  0  0  0  0
 20 24  1  0  0  0  0
 21 22  1  0  0  0  0
 21 52  1  0  0  0  0
 22 51  1  0  0  0  0
 23 24  2  0  0  0  0
 24 53  1  0  0  0  0
 25 26  1  0  0  0  0
 25 45  1  0  0  0  0
 25 46  1  0  0  0  0
 26 27  1  0  0  0  0
 26 47  1  0  0  0  0
 26 48  1  0  0  0  0
 27 49  1  0  0  0  0
 27 50  1  0  0  0  0
M  CHG  2   1   1  10   1
M  END
>  <number_of_rotatable_bonds>
8

>  <lm5_entropy_jk>
21.57145520137845

>  <protonation_change>
deprotonated_in_solution

>  <protonation_site>
54

>  <protonation_pKa>
6.7

>  <protonation_pKa_method>
experiment

>  <experiment_pH>
7.8

>  <protonated_energy_kcalmol>
122.181981

>  <deprotonated_energy_kcalmol>
28.953583

>  <deltaG_kcalmol>
-6.04

>  <charge>
2

$$$$
