3PVG
 OpenBabel11252210453D

 21 22  0  0  1  0  0  0  0  0999 V2000
   22.0040    7.0880   20.9490 C   0  0  0  0  0  0  0  0  0  0  0  0
   22.8680    6.3530   20.1350 C   0  0  0  0  0  0  0  0  0  0  0  0
   23.2100    6.7730   18.8820 C   0  0  0  0  0  0  0  0  0  0  0  0
   22.6110    7.9120   18.2870 C   0  0  0  0  0  0  0  0  0  0  0  0
   21.6750    8.6360   19.0720 C   0  0  0  0  0  0  0  0  0  0  0  0
   21.4030    8.2440   20.4090 C   0  0  0  0  0  0  0  0  0  0  0  0
   23.4240    5.1700   20.4630 N   0  0  0  0  0  0  0  0  0  0  0  0
   24.1260    4.8460   19.3630 C   0  0  0  0  0  0  0  0  0  0  0  0
   24.1030    5.8530   18.3710 N   0  0  0  0  0  0  0  0  0  0  0  0
   25.1500    6.0350   17.3230 C   0  0  0  0  0  0  0  0  0  0  0  0
   25.2340    4.9340   16.3000 C   0  0  0  0  0  0  0  0  0  0  0  0
   25.4810    5.1630   15.1350 O   0  0  0  0  0  0  0  0  0  0  0  0
   25.5020    3.7430   16.8300 O   0  0  0  0  0  0  0  0  0  0  0  0
   21.6360    6.4940   22.7420 Br  0  0  0  0  0  0  0  0  0  0  0  0
   20.1780    9.2450   21.4930 Br  0  0  0  0  0  0  0  0  0  0  0  0
   20.7370   10.1380   18.3040 Br  0  0  0  0  0  0  0  0  0  0  0  0
   22.9340    8.4790   16.4740 Br  0  0  0  0  0  0  0  0  0  0  0  0
   24.7310    3.9480   19.2570 H   0  0  0  0  0  0  0  0  0  0  0  0
   25.5980    3.1610   16.0310 H   0  0  0  0  0  0  0  0  0  0  0  0
   26.1360    6.0750   17.7900 H   0  0  0  0  0  0  0  0  0  0  0  0
   25.0160    6.9630   16.7690 H   0  0  0  0  0  0  0  0  0  0  0  0
  1  2  2  0  0  0  0
  1  6  1  0  0  0  0
  1 14  1  0  0  0  0
  2  3  1  0  0  0  0
  2  7  1  0  0  0  0
  3  4  2  0  0  0  0
  3  9  1  0  0  0  0
  4  5  1  0  0  0  0
  4 17  1  0  0  0  0
  5  6  2  0  0  0  0
  5 16  1  0  0  0  0
  6 15  1  0  0  0  0
  7  8  2  0  0  0  0
  8  9  1  0  0  0  0
  8 18  1  0  0  0  0
  9 10  1  0  0  0  0
 10 11  1  0  0  0  0
 10 20  1  0  0  0  0
 10 21  1  0  0  0  0
 11 12  2  0  0  0  0
 11 13  1  0  0  0  0
 13 19  1  0  0  0  0
M  END
>  <Ki_NM>
1340

>  <charge>
0

>  <number_of_rotatable_bonds>
2

>  <lm5_entropy_jk>
18.17250520339831

>  <penalty_kcalmol>
15.96

>  <protonation_change>
deprotonated_in_solution

>  <protonation_site>
19

>  <protonation_pKa>
3.325

>  <protonation_pKa_method>
stardrop

>  <experiment_pH>
7.4

>  <protonated_energy_kcalmol>
-31.325

>  <deprotonated_energy_kcalmol>
-128.689

$$$$
