3PVG
 OpenBabel11252210453D

 21 22  0  0  1  0  0  0  0  0999 V2000
   21.9240    7.2850   20.9240 C   0  0  0  0  0  0  0  0  0  0  0  0
   22.8040    6.4980   20.1800 C   0  0  0  0  0  0  0  0  0  0  0  0
   23.2000    6.8540   18.9240 C   0  0  0  0  0  0  0  0  0  0  0  0
   22.6450    7.9710   18.2520 C   0  0  0  0  0  0  0  0  0  0  0  0
   21.6950    8.7490   18.9620 C   0  0  0  0  0  0  0  0  0  0  0  0
   21.3610    8.4230   20.3030 C   0  0  0  0  0  0  0  0  0  0  0  0
   23.3230    5.3180   20.5800 N   0  0  0  0  0  0  0  0  0  0  0  0
   24.0570    4.9300   19.5230 C   0  0  0  0  0  0  0  0  0  0  0  0
   24.0790    5.8870   18.4850 N   0  0  0  0  0  0  0  0  0  0  0  0
   25.0990    5.9590   17.4060 C   0  0  0  0  0  0  0  0  0  0  0  0
   24.9810    4.9160   16.3470 C   0  0  0  0  0  0  0  0  0  0  0  0
   25.2210    5.1860   15.1940 O   0  0  0  0  0  0  0  0  0  0  0  0
   25.1690    3.6810   16.8130 O   0  0  0  0  0  0  0  0  0  0  0  0
   21.4980    6.7970   22.7350 Br  0  0  0  0  0  0  0  0  0  0  0  0
   20.0900    9.4800   21.2720 Br  0  0  0  0  0  0  0  0  0  0  0  0
   20.8180   10.2300   18.0840 Br  0  0  0  0  0  0  0  0  0  0  0  0
   23.0300    8.4320   16.4220 Br  0  0  0  0  0  0  0  0  0  0  0  0
   24.6380    4.0110   19.4670 H   0  0  0  0  0  0  0  0  0  0  0  0
   25.2120    3.1250   16.0030 H   0  0  0  0  0  0  0  0  0  0  0  0
   26.0950    5.8030   17.8120 H   0  0  0  0  0  0  0  0  0  0  0  0
   25.0950    6.9300   16.9100 H   0  0  0  0  0  0  0  0  0  0  0  0
  1  2  2  0  0  0  0
  1  6  1  0  0  0  0
  1 14  1  0  0  0  0
  2  3  1  0  0  0  0
  2  7  1  0  0  0  0
  3  4  2  0  0  0  0
  3  9  1  0  0  0  0
  4  5  1  0  0  0  0
  4 17  1  0  0  0  0
  5  6  2  0  0  0  0
  5 16  1  0  0  0  0
  6 15  1  0  0  0  0
  7  8  2  0  0  0  0
  8  9  1  0  0  0  0
  8 18  1  0  0  0  0
  9 10  1  0  0  0  0
 10 11  1  0  0  0  0
 10 20  1  0  0  0  0
 10 21  1  0  0  0  0
 11 12  2  0  0  0  0
 11 13  1  0  0  0  0
 13 19  1  0  0  0  0
M  END
>  <Ki_NM>
1340

>  <charge>
0

>  <number_of_rotatable_bonds>
2

>  <lm5_entropy_jk>
18.17250520339831

>  <penalty_kcalmol>
15.96

>  <protonation_change>
deprotonated_in_solution

>  <protonation_site>
19

>  <protonation_pKa>
3.325

>  <protonation_pKa_method>
stardrop

>  <experiment_pH>
7.4

>  <protonated_energy_kcalmol>
-31.325

>  <deprotonated_energy_kcalmol>
-128.689

$$$$
