6T5W
 OpenBabel11252210453D

 54 56  0  0  1  0  0  0  0  0999 V2000
   -0.1750   20.8840   15.1740 N   0  3  0  0  0  0  0  0  0  0  0  0
    1.0050   20.9400   16.1660 C   0  0  2  0  0  0  0  0  0  0  0  0
   -0.7000   18.4040   19.6560 O   0  0  0  0  0  0  0  0  0  0  0  0
    2.3770   21.1220   15.4270 C   0  0  0  0  0  0  0  0  0  0  0  0
    1.5210   19.8370   18.3440 N   0  0  0  0  0  0  0  0  0  0  0  0
    0.5890   18.6330   16.6340 O   0  0  0  0  0  0  0  0  0  0  0  0
    2.3440   22.2840   14.4550 C   0  0  0  0  0  0  0  0  0  0  0  0
    0.5220   16.5010   19.3640 N   0  0  0  0  0  0  0  0  0  0  0  0
    2.2570   23.5990   14.9360 C   0  0  0  0  0  0  0  0  0  0  0  0
   -2.6770   14.3000   14.3800 N   0  0  0  0  0  0  0  0  0  0  0  0
    2.2000   24.6810   14.0410 C   0  0  0  0  0  0  0  0  0  0  0  0
   -1.7170   13.5270   16.3800 N   0  3  0  0  0  0  0  0  0  0  0  0
    2.2280   24.4450   12.6560 C   0  0  0  0  0  0  0  0  0  0  0  0
    2.3180   23.1300   12.1690 C   0  0  0  0  0  0  0  0  0  0  0  0
    2.3790   22.0530   13.0710 C   0  0  0  0  0  0  0  0  0  0  0  0
    0.9960   19.6990   17.0640 C   0  0  0  0  0  0  0  0  0  0  0  0
    1.7020   18.6790   19.2500 C   0  0  2  0  0  0  0  0  0  0  0  0
    0.3850   17.8740   19.4610 C   0  0  0  0  0  0  0  0  0  0  0  0
   -0.5930   15.5150   19.4120 C   0  0  0  0  0  0  0  0  0  0  0  0
   -1.0980   15.1290   18.0390 C   0  0  0  0  0  0  0  0  0  0  0  0
   -1.4950   16.2170   17.2050 C   0  0  0  0  0  0  0  0  0  0  0  0
   -2.0090   15.9260   15.9800 C   0  0  0  0  0  0  0  0  0  0  0  0
   -2.1420   14.5750   15.5960 C   0  0  0  0  0  0  0  0  0  0  0  0
   -1.1970   13.7920   17.6630 C   0  0  0  0  0  0  0  0  0  0  0  0
    2.3320   19.2560   20.5440 C   0  0  0  0  0  0  0  0  0  0  0  0
    2.8410   20.6660   20.1760 C   0  0  0  0  0  0  0  0  0  0  0  0
    1.9640   21.0940   18.9900 C   0  0  0  0  0  0  0  0  0  0  0  0
   -0.0800   21.6090   14.4430 H   0  0  0  0  0  0  0  0  0  0  0  0
   -1.0870   21.0310   15.6390 H   0  0  0  0  0  0  0  0  0  0  0  0
   -0.2240   19.9510   14.7220 H   0  0  0  0  0  0  0  0  0  0  0  0
    0.8330   21.7800   16.8510 H   0  0  0  0  0  0  0  0  0  0  0  0
    3.2000   21.2750   16.1440 H   0  0  0  0  0  0  0  0  0  0  0  0
    2.6640   20.2000   14.9030 H   0  0  0  0  0  0  0  0  0  0  0  0
    1.4770   16.1490   19.3430 H   0  0  0  0  0  0  0  0  0  0  0  0
    2.2380   23.7860   16.0100 H   0  0  0  0  0  0  0  0  0  0  0  0
   -3.1690   15.0750   13.9440 H   0  0  0  0  0  0  0  0  0  0  0  0
   -3.0050   13.3670   14.1250 H   0  0  0  0  0  0  0  0  0  0  0  0
    2.1340   25.7030   14.4200 H   0  0  0  0  0  0  0  0  0  0  0  0
    2.1830   25.2830   11.9580 H   0  0  0  0  0  0  0  0  0  0  0  0
    2.3440   22.9470   11.0930 H   0  0  0  0  0  0  0  0  0  0  0  0
    2.4610   21.0370   12.6850 H   0  0  0  0  0  0  0  0  0  0  0  0
    2.4040   17.9870   18.7750 H   0  0  0  0  0  0  0  0  0  0  0  0
   -0.2550   14.6190   19.9550 H   0  0  0  0  0  0  0  0  0  0  0  0
   -1.4130   15.9260   20.0230 H   0  0  0  0  0  0  0  0  0  0  0  0
    3.1490   18.6230   20.9070 H   0  0  0  0  0  0  0  0  0  0  0  0
    1.5720   19.3170   21.3410 H   0  0  0  0  0  0  0  0  0  0  0  0
    2.7830   21.3780   21.0160 H   0  0  0  0  0  0  0  0  0  0  0  0
    3.8960   20.6300   19.8680 H   0  0  0  0  0  0  0  0  0  0  0  0
    1.0840   21.6510   19.3540 H   0  0  0  0  0  0  0  0  0  0  0  0
    2.5280   21.7470   18.3060 H   0  0  0  0  0  0  0  0  0  0  0  0
   -2.3060   16.7400   15.3360 H   0  0  0  0  0  0  0  0  0  0  0  0
   -1.3980   17.2480   17.5380 H   0  0  0  0  0  0  0  0  0  0  0  0
   -0.8990   12.9490   18.2770 H   0  0  0  0  0  0  0  0  0  0  0  0
   -1.7630   12.5730   16.0390 H   0  0  0  0  0  0  0  0  0  0  0  0
  1  2  1  0  0  0  0
  1 28  1  0  0  0  0
  1 29  1  0  0  0  0
  1 30  1  0  0  0  0
  2  4  1  0  0  0  0
  2 16  1  0  0  0  0
  2 31  1  1  0  0  0
  3 18  2  0  0  0  0
  4  7  1  0  0  0  0
  4 32  1  0  0  0  0
  4 33  1  0  0  0  0
  5 16  1  0  0  0  0
  5 17  1  0  0  0  0
  5 27  1  0  0  0  0
  6 16  2  0  0  0  0
  7  9  2  0  0  0  0
  7 15  1  0  0  0  0
  8 18  1  0  0  0  0
  8 19  1  0  0  0  0
  8 34  1  0  0  0  0
  9 11  1  0  0  0  0
  9 35  1  0  0  0  0
 10 23  1  0  0  0  0
 10 36  1  0  0  0  0
 10 37  1  0  0  0  0
 11 13  2  0  0  0  0
 11 38  1  0  0  0  0
 12 23  2  0  0  0  0
 12 24  1  0  0  0  0
 12 54  1  0  0  0  0
 13 14  1  0  0  0  0
 13 39  1  0  0  0  0
 14 15  2  0  0  0  0
 14 40  1  0  0  0  0
 15 41  1  0  0  0  0
 17 18  1  0  0  0  0
 17 25  1  0  0  0  0
 17 42  1  6  0  0  0
 19 20  1  0  0  0  0
 19 43  1  0  0  0  0
 19 44  1  0  0  0  0
 20 21  1  0  0  0  0
 20 24  2  0  0  0  0
 21 22  2  0  0  0  0
 21 52  1  0  0  0  0
 22 23  1  0  0  0  0
 22 51  1  0  0  0  0
 24 53  1  0  0  0  0
 25 26  1  0  0  0  0
 25 45  1  0  0  0  0
 25 46  1  0  0  0  0
 26 27  1  0  0  0  0
 26 47  1  0  0  0  0
 26 48  1  0  0  0  0
 27 49  1  0  0  0  0
 27 50  1  0  0  0  0
M  CHG  2   1   1  12   1
M  END
>  <number_of_rotatable_bonds>
8

>  <lm5_entropy_jk>
24.380619327158232

>  <protonation_change>
deprotonated_in_solution

>  <protonation_site>
54

>  <protonation_pKa>
6.3

>  <protonation_pKa_method>
experiment

>  <experiment_pH>
7.8

>  <protonated_energy_kcalmol>
126.798999

>  <deprotonated_energy_kcalmol>
33.623896

>  <deltaG_kcalmol>
-5.96

>  <charge>
2

$$$$
