1b_1k1i_var1.pdb
 OpenBabel11252210453D

 65 68  0  0  1  0  0  0  0  0999 V2000
    0.5690   22.1600   16.7190 C   0  0  0  0  0  0  0  0  0  0  0  0
    0.0730   21.4700   15.6340 C   0  0  0  0  0  0  0  0  0  0  0  0
    0.9630   20.9610   14.6440 C   0  0  0  0  0  0  0  0  0  0  0  0
    2.3180   21.1480   14.7610 C   0  0  0  0  0  0  0  0  0  0  0  0
    4.2720   22.0470   16.0420 C   0  0  0  0  0  0  0  0  0  0  0  0
    4.7600   22.7120   17.1370 C   0  0  0  0  0  0  0  0  0  0  0  0
    3.8690   23.2250   18.1280 C   0  0  0  0  0  0  0  0  0  0  0  0
    2.5150   23.0640   17.9950 C   0  0  0  0  0  0  0  0  0  0  0  0
    1.9750   22.3630   16.8660 C   0  0  0  0  0  0  0  0  0  0  0  0
    2.8630   21.8490   15.8820 C   0  0  0  0  0  0  0  0  0  0  0  0
   -1.6190   21.1290   15.4770 S   0  0  0  0  0  0  0  0  0  0  0  0
   -2.1020   13.8750   15.1460 C   0  0  0  0  0  0  0  0  0  0  0  0
   -1.7260   19.5280   16.1080 N   0  0  0  0  0  0  0  0  0  0  0  0
   -1.5760   19.1770   17.5220 C   0  0  1  0  0  0  0  0  0  0  0  0
   -2.0310   21.0010   14.0780 O   0  0  0  0  0  0  0  0  0  0  0  0
   -2.4250   22.0390   16.2870 O   0  0  0  0  0  0  0  0  0  0  0  0
   -2.5750   18.0490   17.9110 C   0  0  0  0  0  0  0  0  0  0  0  0
   -0.1240   18.6920   17.8100 C   0  0  0  0  0  0  0  0  0  0  0  0
    0.5410   18.1570   16.9330 O   0  0  0  0  0  0  0  0  0  0  0  0
    2.2330   20.4090   20.7200 C   0  0  0  0  0  0  0  0  0  0  0  0
   -1.7500   12.5630   14.9960 N   0  3  0  0  0  0  0  0  0  0  0  0
   -2.6850   14.4510   14.0530 N   0  0  0  0  0  0  0  0  0  0  0  0
   -1.8110   14.6250   16.3830 C   0  0  0  0  0  0  0  0  0  0  0  0
   -1.1480   14.0010   17.4590 C   0  0  0  0  0  0  0  0  0  0  0  0
   -0.9370   14.6950   18.6500 C   0  0  0  0  0  0  0  0  0  0  0  0
   -1.3920   16.0060   18.7940 C   0  0  0  0  0  0  0  0  0  0  0  0
   -2.0570   16.6490   17.7360 C   0  0  0  0  0  0  0  0  0  0  0  0
   -2.2470   15.9580   16.5340 C   0  0  0  0  0  0  0  0  0  0  0  0
   -0.1480   19.5960   20.2070 C   0  0  1  0  0  0  0  0  0  0  0  0
    0.7660   20.8030   20.4990 C   0  0  0  0  0  0  0  0  0  0  0  0
    2.7410   19.5070   19.5890 C   0  0  0  0  0  0  0  0  0  0  0  0
    1.8110   18.3120   19.3430 C   0  0  0  0  0  0  0  0  0  0  0  0
    0.3910   18.7390   19.1210 N   0  0  0  0  0  0  0  0  0  0  0  0
   -0.2970   18.7200   21.4630 C   0  0  0  0  0  0  0  0  0  0  0  0
    0.3490   18.6630   22.4810 O   0  0  0  0  0  0  0  0  0  0  0  0
   -1.4310   17.9440   21.3340 O   0  0  0  0  0  0  0  0  0  0  0  0
   -1.5620   17.3170   22.1550 H   0  0  0  0  0  0  0  0  0  0  0  0
    1.8130   17.6130   20.2190 H   0  0  0  0  0  0  0  0  0  0  0  0
   -0.0880   22.5730   17.4970 H   0  0  0  0  0  0  0  0  0  0  0  0
    0.5620   20.4170   13.7810 H   0  0  0  0  0  0  0  0  0  0  0  0
    3.0070   20.7650   13.9980 H   0  0  0  0  0  0  0  0  0  0  0  0
    4.9510   21.6500   15.2790 H   0  0  0  0  0  0  0  0  0  0  0  0
    5.8360   22.8620   17.2750 H   0  0  0  0  0  0  0  0  0  0  0  0
    4.2880   23.7460   18.9960 H   0  0  0  0  0  0  0  0  0  0  0  0
    1.8290   23.4650   18.7490 H   0  0  0  0  0  0  0  0  0  0  0  0
   -1.5870   18.7250   15.4560 H   0  0  0  0  0  0  0  0  0  0  0  0
   -1.8280   20.0910   18.1330 H   0  0  0  0  0  0  0  0  0  0  0  0
   -3.5010   18.1910   17.2810 H   0  0  0  0  0  0  0  0  0  0  0  0
    2.3400   19.8850   21.6970 H   0  0  0  0  0  0  0  0  0  0  0  0
   -1.3380   12.0040   15.7660 H   0  0  0  0  0  0  0  0  0  0  0  0
   -3.0850   13.8210   13.3070 H   0  0  0  0  0  0  0  0  0  0  0  0
   -0.8000   12.9690   17.3960 H   0  0  0  0  0  0  0  0  0  0  0  0
   -0.4220   14.2070   19.4860 H   0  0  0  0  0  0  0  0  0  0  0  0
   -1.2220   16.5420   19.7410 H   0  0  0  0  0  0  0  0  0  0  0  0
   -2.7450   16.4870   15.7200 H   0  0  0  0  0  0  0  0  0  0  0  0
   -1.1790   19.9770   19.9560 H   0  0  0  0  0  0  0  0  0  0  0  0
    0.7030   21.4990   19.6240 H   0  0  0  0  0  0  0  0  0  0  0  0
    3.7560   19.1210   19.8510 H   0  0  0  0  0  0  0  0  0  0  0  0
    2.1590   17.7500   18.4420 H   0  0  0  0  0  0  0  0  0  0  0  0
   -2.8850   18.1980   18.9790 H   0  0  0  0  0  0  0  0  0  0  0  0
    2.8530   21.3430   20.7500 H   0  0  0  0  0  0  0  0  0  0  0  0
   -2.1700   11.9920   14.2220 H   0  0  0  0  0  0  0  0  0  0  0  0
   -3.0060   15.4370   14.0420 H   0  0  0  0  0  0  0  0  0  0  0  0
    0.3840   21.3580   21.3930 H   0  0  0  0  0  0  0  0  0  0  0  0
    2.8170   20.1070   18.6500 H   0  0  0  0  0  0  0  0  0  0  0  0
  1  2  2  0  0  0  0
  1  9  1  0  0  0  0
  1 39  1  0  0  0  0
  2  3  1  0  0  0  0
  2 11  1  0  0  0  0
  3  4  2  0  0  0  0
  3 40  1  0  0  0  0
  4 10  1  0  0  0  0
  4 41  1  0  0  0  0
  5  6  2  0  0  0  0
  5 10  1  0  0  0  0
  5 42  1  0  0  0  0
  6  7  1  0  0  0  0
  6 43  1  0  0  0  0
  7  8  2  0  0  0  0
  7 44  1  0  0  0  0
  8  9  1  0  0  0  0
  8 45  1  0  0  0  0
  9 10  2  0  0  0  0
 11 13  1  0  0  0  0
 11 15  2  0  0  0  0
 11 16  2  0  0  0  0
 12 21  2  0  0  0  0
 12 22  1  0  0  0  0
 12 23  1  0  0  0  0
 13 14  1  0  0  0  0
 13 46  1  0  0  0  0
 14 17  1  0  0  0  0
 14 18  1  0  0  0  0
 14 47  1  1  0  0  0
 17 27  1  0  0  0  0
 17 48  1  0  0  0  0
 17 60  1  0  0  0  0
 18 19  2  0  0  0  0
 18 33  1  0  0  0  0
 20 30  1  0  0  0  0
 20 31  1  0  0  0  0
 20 49  1  0  0  0  0
 20 61  1  0  0  0  0
 21 50  1  0  0  0  0
 21 62  1  0  0  0  0
 22 51  1  0  0  0  0
 22 63  1  0  0  0  0
 23 24  2  0  0  0  0
 23 28  1  0  0  0  0
 24 25  1  0  0  0  0
 24 52  1  0  0  0  0
 25 26  2  0  0  0  0
 25 53  1  0  0  0  0
 26 27  1  0  0  0  0
 26 54  1  0  0  0  0
 27 28  2  0  0  0  0
 28 55  1  0  0  0  0
 29 30  1  0  0  0  0
 29 33  1  0  0  0  0
 29 34  1  0  0  0  0
 29 56  1  6  0  0  0
 30 57  1  0  0  0  0
 30 64  1  0  0  0  0
 31 32  1  0  0  0  0
 31 58  1  0  0  0  0
 31 65  1  0  0  0  0
 32 33  1  0  0  0  0
 32 38  1  0  0  0  0
 32 59  1  0  0  0  0
 34 35  2  0  0  0  0
 34 36  1  0  0  0  0
 36 37  1  0  0  0  0
M  CHG  1  21   1
M  END
>  <penalty_kcalmol>
15.08

>  <protonation_change>
deprotonated_in_solution

>  <protonation_site>
37

>  <protonation_pKa>
3.21

>  <protonation_pKa_method>
experiment

>  <experiment_pH>
7.8

>  <protonated_energy_kcalmol>
-87.830836

>  <deprotonated_energy_kcalmol>
-184.310209

>  <deltaG_kcalmol>
-8.98

>  <charge>
1

>  <lm5_entropy_jk>
22.813220320094924

>  <number_of_rotatable_bonds>
9

$$$$
